0,   100.00, 33, 0, 1, 60.00     / PSS(R)E-33.7    TUE, SEP 11 2018  22:16
 GO Competition Network Model 07
 GO Competition Network Model 07
     1,'A1          ', 345.0000,1,   1,   1,   1,1.00399, -16.8017,1.05000,0.95000,1.10000,0.90000
     2,'A2          ', 345.0000,1,   1,   1,   1,1.00401, -16.8100,1.05000,0.95000,1.10000,0.90000
     3,'A3          ', 345.0000,1,   1,   1,   1,1.00111, -18.0913,1.05000,0.95000,1.10000,0.90000
     4,'A4          ', 345.0000,1,   1,   1,   1,1.00113, -18.0966,1.05000,0.95000,1.10000,0.90000
     5,'A5          ', 345.0000,1,   1,   1,   1,1.00099, -17.2064,1.05000,0.95000,1.10000,0.90000
     6,'A6          ', 345.0000,1,   1,   1,   1,1.00101, -17.2197,1.05000,0.95000,1.10000,0.90000
     7,'A7          ', 345.0000,1,   1,   1,   1,0.99882, -16.9646,1.05000,0.95000,1.10000,0.90000
     8,'A8          ', 345.0000,1,   1,   1,   1,0.99884, -16.9702,1.05000,0.95000,1.10000,0.90000
     9,'A9          ', 345.0000,2,   1,   1,   1,1.00363, -14.9958,1.05000,0.95000,1.10000,0.90000
    10,'A10         ', 345.0000,2,   1,   1,   1,1.00358, -14.9474,1.05000,0.95000,1.10000,0.90000
    11,'A11         ', 138.0000,2,   1,   1,   1,1.00463, -17.3351,1.05000,0.95000,1.10000,0.90000
    12,'A12         ', 138.0000,2,   1,   1,   1,1.00099, -17.3387,1.05000,0.95000,1.10000,0.90000
    13,'A13         ', 138.0000,1,   1,   1,   1,1.00414, -17.2360,1.05000,0.95000,1.10000,0.90000
    14,'A14         ', 138.0000,1,   1,   1,   1,1.00104, -17.3112,1.05000,0.95000,1.10000,0.90000
    15,'A15         ', 138.0000,1,   1,   1,   1,1.00292, -17.4321,1.05000,0.95000,1.10000,0.90000
    16,'A16         ', 138.0000,1,   1,   1,   1,1.00293, -17.4319,1.05000,0.95000,1.10000,0.90000
    17,'A17         ', 138.0000,1,   1,   1,   1,1.00609, -17.4579,1.05000,0.95000,1.10000,0.90000
    18,'A18         ', 138.0000,1,   1,   1,   1,1.00574, -16.0326,1.05000,0.95000,1.10000,0.90000
    19,'A19         ', 138.0000,1,   1,   1,   1,1.00569, -16.0130,1.05000,0.95000,1.10000,0.90000
    20,'A20         ', 138.0000,2,   1,   1,   1,1.00694, -17.4002,1.05000,0.95000,1.10000,0.90000
    21,'A21         ', 138.0000,1,   1,   1,   1,0.98231, -19.7014,1.05000,0.95000,1.10000,0.90000
    22,'A22         ', 138.0000,1,   1,   1,   1,0.98243, -19.6987,1.05000,0.95000,1.10000,0.90000
    23,'A23         ', 138.0000,1,   1,   1,   1,1.00233, -19.1972,1.05000,0.95000,1.10000,0.90000
    24,'A24         ', 138.0000,2,   1,   1,   1,1.00540, -18.9067,1.05000,0.95000,1.10000,0.90000
    25,'A25         ', 138.0000,2,   1,   1,   1,1.00290, -17.3905,1.05000,0.95000,1.10000,0.90000
    26,'A26         ', 138.0000,2,   1,   1,   1,1.00296, -17.3953,1.05000,0.95000,1.10000,0.90000
    27,'A27         ', 138.0000,1,   1,   1,   1,1.00426, -17.3796,1.05000,0.95000,1.10000,0.90000
    28,'A28         ', 138.0000,1,   1,   1,   1,1.00452, -17.3661,1.05000,0.95000,1.10000,0.90000
    29,'A29         ', 138.0000,1,   1,   1,   1,1.00534, -16.7911,1.05000,0.95000,1.10000,0.90000
    30,'A30         ', 138.0000,1,   1,   1,   1,1.00536, -16.7898,1.05000,0.95000,1.10000,0.90000
    31,'A31         ', 138.0000,1,   1,   1,   1,0.98304, -20.7215,1.05000,0.95000,1.10000,0.90000
    32,'A32         ', 138.0000,2,   1,   1,   1,0.98301, -20.7556,1.05000,0.95000,1.10000,0.90000
    33,'A33         ', 138.0000,1,   1,   1,   1,1.00542, -15.4805,1.05000,0.95000,1.10000,0.90000
    34,'A34         ', 138.0000,1,   1,   1,   1,1.00566, -15.4689,1.05000,0.95000,1.10000,0.90000
    35,'A35         ', 138.0000,1,   1,   1,   1,1.00307, -17.3902,1.05000,0.95000,1.10000,0.90000
    36,'A36         ', 138.0000,1,   1,   1,   1,1.00389, -17.1932,1.05000,0.95000,1.10000,0.90000
    37,'A37         ', 138.0000,1,   1,   1,   1,1.00307, -17.3897,1.05000,0.95000,1.10000,0.90000
    38,'A38         ', 138.0000,1,   1,   1,   1,1.00389, -17.1932,1.05000,0.95000,1.10000,0.90000
    39,'A39         ', 138.0000,1,   1,   1,   1,0.99566, -24.8497,1.05000,0.95000,1.10000,0.90000
    40,'A40         ', 138.0000,1,   1,   1,   1,1.00399, -17.3127,1.05000,0.95000,1.10000,0.90000
    41,'A41         ', 138.0000,1,   1,   1,   1,1.00399, -17.3146,1.05000,0.95000,1.10000,0.90000
    42,'A42         ', 138.0000,1,   1,   1,   1,1.00734, -16.4585,1.05000,0.95000,1.10000,0.90000
    43,'A43         ', 138.0000,1,   1,   1,   1,1.00737, -16.4563,1.05000,0.95000,1.10000,0.90000
    44,'A44         ', 138.0000,1,   1,   1,   1,0.98035, -19.6341,1.05000,0.95000,1.10000,0.90000
    45,'A45         ', 138.0000,1,   1,   1,   1,0.98031, -19.6432,1.05000,0.95000,1.10000,0.90000
    46,'A46         ', 138.0000,2,   1,   1,   1,0.99756, -19.5567,1.05000,0.95000,1.10000,0.90000
    47,'A47         ', 138.0000,1,   1,   1,   1,0.98946, -19.0274,1.05000,0.95000,1.10000,0.90000
    48,'A48         ', 138.0000,1,   1,   1,   1,0.98932, -19.0301,1.05000,0.95000,1.10000,0.90000
    49,'A49         ', 138.0000,1,   1,   1,   1,0.99508, -25.6656,1.05000,0.95000,1.10000,0.90000
    50,'A50         ', 138.0000,1,   1,   1,   1,1.00026, -21.0924,1.05000,0.95000,1.10000,0.90000
    51,'A51         ', 138.0000,1,   1,   1,   1,1.00026, -21.0924,1.05000,0.95000,1.10000,0.90000
    52,'A52         ', 138.0000,1,   1,   1,   1,0.98361, -19.5942,1.05000,0.95000,1.10000,0.90000
    53,'A53         ', 138.0000,2,   1,   1,   1,0.99760, -19.1210,1.05000,0.95000,1.10000,0.90000
    54,'A54         ', 138.0000,1,   1,   1,   1,1.00341, -17.1143,1.05000,0.95000,1.10000,0.90000
    55,'A55         ', 138.0000,1,   1,   1,   1,1.00347, -17.1341,1.05000,0.95000,1.10000,0.90000
    56,'A56         ', 138.0000,1,   1,   1,   1,1.00032, -21.2181,1.05000,0.95000,1.10000,0.90000
    57,'A57         ', 138.0000,1,   1,   1,   1,1.00004, -21.1698,1.05000,0.95000,1.10000,0.90000
    58,'A58         ', 138.0000,1,   1,   1,   1,1.00265, -17.4937,1.05000,0.95000,1.10000,0.90000
    59,'A59         ', 138.0000,1,   1,   1,   1,1.00575, -17.1500,1.05000,0.95000,1.10000,0.90000
    60,'A60         ', 138.0000,1,   1,   1,   1,0.98530, -19.0495,1.05000,0.95000,1.10000,0.90000
    61,'A61         ', 138.0000,1,   1,   1,   1,0.98533, -19.0476,1.05000,0.95000,1.10000,0.90000
    62,'A62         ', 138.0000,1,   1,   1,   1,1.00575, -16.0318,1.05000,0.95000,1.10000,0.90000
    63,'A63         ', 138.0000,1,   1,   1,   1,1.00569, -16.0125,1.05000,0.95000,1.10000,0.90000
    64,'A64         ', 138.0000,1,   1,   1,   1,1.00340, -17.3215,1.05000,0.95000,1.10000,0.90000
    65,'A65         ', 138.0000,1,   1,   1,   1,1.00536, -16.7853,1.05000,0.95000,1.10000,0.90000
    66,'A66         ', 138.0000,1,   1,   1,   1,0.99798, -21.9235,1.05000,0.95000,1.10000,0.90000
    67,'A67         ', 138.0000,2,   1,   1,   1,0.99797, -21.9325,1.05000,0.95000,1.10000,0.90000
    68,'A68         ', 138.0000,2,   1,   1,   1,1.00858, -14.4985,1.05000,0.95000,1.10000,0.90000
    69,'A69         ', 138.0000,1,   1,   1,   1,0.99216, -18.9752,1.05000,0.95000,1.10000,0.90000
    70,'A70         ', 138.0000,1,   1,   1,   1,0.97691, -19.9600,1.05000,0.95000,1.10000,0.90000
    71,'B71         ', 345.0000,1,   2,   2,   1,0.99094, -14.2916,1.05000,0.95000,1.10000,0.90000
    72,'B72         ', 345.0000,1,   2,   2,   1,0.99094, -14.2916,1.05000,0.95000,1.10000,0.90000
    73,'B73         ', 345.0000,1,   2,   2,   1,1.00084, -12.1044,1.05000,0.95000,1.10000,0.90000
    74,'B74         ', 345.0000,1,   2,   2,   1,1.00084, -12.1044,1.05000,0.95000,1.10000,0.90000
    75,'B75         ', 345.0000,2,   2,   2,   1,1.00773, -14.1172,1.05000,0.95000,1.10000,0.90000
    76,'B76         ', 345.0000,2,   2,   2,   1,1.00788, -14.1157,1.05000,0.95000,1.10000,0.90000
    77,'B77         ', 500.0000,2,   2,   2,   1,1.00260, -16.4819,1.05000,0.95000,1.10000,0.90000
    78,'B78         ', 345.0000,2,   2,   2,   1,0.99160, -13.6803,1.05000,0.95000,1.10000,0.90000
    79,'B79         ', 345.0000,1,   2,   2,   1,0.99065, -13.4309,1.05000,0.95000,1.10000,0.90000
    80,'B80         ', 345.0000,1,   2,   2,   1,0.99065, -13.4309,1.05000,0.95000,1.10000,0.90000
    81,'B81         ', 345.0000,1,   2,   2,   1,0.99071, -14.2325,1.05000,0.95000,1.10000,0.90000
    82,'B82         ', 345.0000,1,   2,   2,   1,0.99071, -14.2301,1.05000,0.95000,1.10000,0.90000
    83,'B83         ', 138.0000,1,   2,   2,   1,0.97020, -15.1608,1.05000,0.95000,1.10000,0.90000
    84,'B84         ', 138.0000,1,   2,   2,   1,0.97998, -13.7058,1.05000,0.95000,1.10000,0.90000
    85,'B85         ', 138.0000,1,   2,   2,   1,1.00525, -12.9748,1.05000,0.95000,1.10000,0.90000
    86,'B86         ', 138.0000,1,   2,   2,   1,1.00023, -16.3818,1.05000,0.95000,1.10000,0.90000
    87,'B87         ', 138.0000,1,   2,   2,   1,0.97351, -10.2085,1.05000,0.95000,1.10000,0.90000
    88,'B88         ', 138.0000,1,   2,   2,   1,0.98553,  -9.7545,1.05000,0.95000,1.10000,0.90000
    89,'B89         ', 138.0000,1,   2,   2,   1,0.97985, -14.8862,1.05000,0.95000,1.10000,0.90000
    90,'B90         ', 138.0000,2,   2,   2,   1,0.97830, -16.8661,1.05000,0.95000,1.10000,0.90000
    91,'B91         ', 138.0000,1,   2,   2,   1,0.99018,  -7.4457,1.05000,0.95000,1.10000,0.90000
    92,'B92         ', 138.0000,2,   2,   2,   1,1.00542, -12.9568,1.05000,0.95000,1.10000,0.90000
    93,'B93         ', 138.0000,1,   2,   2,   1,1.00542, -12.9568,1.05000,0.95000,1.10000,0.90000
    94,'B94         ', 138.0000,1,   2,   2,   1,0.96628, -14.6496,1.05000,0.95000,1.10000,0.90000
    95,'B95         ', 138.0000,2,   2,   2,   1,0.95598, -18.9400,1.05000,0.95000,1.10000,0.90000
    96,'B96         ', 138.0000,2,   2,   2,   1,0.97395, -15.3148,1.05000,0.95000,1.10000,0.90000
    97,'B97         ', 138.0000,1,   2,   2,   1,0.97376, -15.3249,1.05000,0.95000,1.10000,0.90000
    98,'B98         ', 138.0000,2,   2,   2,   1,1.00358, -11.3192,1.05000,0.95000,1.10000,0.90000
    99,'B99         ', 138.0000,2,   2,   2,   1,1.00788,  -9.8448,1.05000,0.95000,1.10000,0.90000
   100,'B100        ', 138.0000,1,   2,   2,   1,0.96534, -15.9714,1.05000,0.95000,1.10000,0.90000
   101,'B101        ', 138.0000,1,   2,   2,   1,0.99918, -13.4183,1.05000,0.95000,1.10000,0.90000
   102,'B102        ', 138.0000,1,   2,   2,   1,0.96782, -15.3029,1.05000,0.95000,1.10000,0.90000
   103,'B103        ', 138.0000,1,   2,   2,   1,1.00294, -11.4164,1.05000,0.95000,1.10000,0.90000
   104,'B104        ', 138.0000,1,   2,   2,   1,0.95718, -17.4202,1.05000,0.95000,1.10000,0.90000
   105,'B105        ', 138.0000,1,   2,   2,   1,1.00616, -13.0460,1.05000,0.95000,1.10000,0.90000
   106,'B106        ', 138.0000,1,   2,   2,   1,0.98506, -14.5601,1.05000,0.95000,1.10000,0.90000
   107,'B107        ', 138.0000,1,   2,   2,   1,0.97946, -12.7923,1.05000,0.95000,1.10000,0.90000
   108,'B108        ', 138.0000,1,   2,   2,   1,0.97253, -15.3043,1.05000,0.95000,1.10000,0.90000
   109,'B109        ', 138.0000,1,   2,   2,   1,0.98486, -14.7666,1.05000,0.95000,1.10000,0.90000
   110,'B110        ', 138.0000,1,   2,   2,   1,0.97426, -12.1298,1.05000,0.95000,1.10000,0.90000
   111,'B111        ', 138.0000,1,   2,   2,   1,0.96297, -16.3165,1.05000,0.95000,1.10000,0.90000
   112,'B112        ', 138.0000,2,   2,   2,   1,0.98664, -14.6175,1.05000,0.95000,1.10000,0.90000
   113,'B113        ', 138.0000,1,   2,   2,   1,0.97575,  -9.8997,1.05000,0.95000,1.10000,0.90000
   114,'B114        ', 138.0000,1,   2,   2,   1,0.97972, -13.8591,1.05000,0.95000,1.10000,0.90000
   115,'B115        ', 138.0000,1,   2,   2,   1,0.98440, -13.3387,1.05000,0.95000,1.10000,0.90000
   116,'B116        ', 138.0000,1,   2,   2,   1,0.95839, -16.7878,1.05000,0.95000,1.10000,0.90000
   117,'B117        ', 138.0000,1,   2,   2,   1,0.95792, -19.8145,1.05000,0.95000,1.10000,0.90000
   118,'B118        ', 138.0000,1,   2,   2,   1,0.97069, -15.3107,1.05000,0.95000,1.10000,0.90000
   119,'B119        ', 138.0000,1,   2,   2,   1,0.97122, -13.0602,1.05000,0.95000,1.10000,0.90000
   120,'B120        ', 138.0000,2,   2,   2,   1,0.98431, -14.5706,1.05000,0.95000,1.10000,0.90000
   121,'B121        ', 138.0000,1,   2,   2,   1,0.98419, -14.5754,1.05000,0.95000,1.10000,0.90000
   122,'B122        ', 138.0000,1,   2,   2,   1,0.96656, -15.5336,1.05000,0.95000,1.10000,0.90000
   123,'B123        ', 138.0000,1,   2,   2,   1,0.97571, -15.1841,1.05000,0.95000,1.10000,0.90000
   124,'B124        ', 138.0000,2,   2,   2,   1,0.96999, -15.0941,1.05000,0.95000,1.10000,0.90000
   125,'B125        ', 138.0000,2,   2,   2,   1,0.96981, -15.0862,1.05000,0.95000,1.10000,0.90000
   126,'B126        ', 138.0000,1,   2,   2,   1,0.98042, -14.3514,1.05000,0.95000,1.10000,0.90000
   127,'B127        ', 138.0000,2,   2,   2,   1,0.96170, -16.4640,1.05000,0.95000,1.10000,0.90000
   128,'B128        ', 138.0000,2,   2,   2,   1,0.96178, -16.4767,1.05000,0.95000,1.10000,0.90000
   129,'B129        ', 138.0000,1,   2,   2,   1,0.97387, -15.3190,1.05000,0.95000,1.10000,0.90000
   130,'B130        ', 138.0000,1,   2,   2,   1,0.97509,  -9.9442,1.05000,0.95000,1.10000,0.90000
   131,'B131        ', 138.0000,1,   2,   2,   1,0.98599, -14.6620,1.05000,0.95000,1.10000,0.90000
   132,'B132        ', 138.0000,1,   2,   2,   1,0.95852, -16.8413,1.05000,0.95000,1.10000,0.90000
   133,'B133        ', 138.0000,1,   2,   2,   1,0.95701, -16.9042,1.05000,0.95000,1.10000,0.90000
   134,'B134        ', 138.0000,1,   2,   2,   1,0.95755, -16.8607,1.05000,0.95000,1.10000,0.90000
   135,'B135        ', 138.0000,2,   2,   2,   1,1.00718,  -3.0162,1.05000,0.95000,1.10000,0.90000
   136,'B136        ', 138.0000,2,   2,   2,   1,0.97254, -15.0693,1.05000,0.95000,1.10000,0.90000
   137,'B137        ', 138.0000,1,   2,   2,   1,0.97334, -15.3555,1.05000,0.95000,1.10000,0.90000
   138,'B138        ', 138.0000,2,   2,   2,   1,0.95727, -19.4550,1.05000,0.95000,1.10000,0.90000
   139,'B139        ', 138.0000,1,   2,   2,   1,0.96978, -15.2757,1.05000,0.95000,1.10000,0.90000
   140,'B140        ', 138.0000,1,   2,   2,   1,1.00296, -14.2457,1.05000,0.95000,1.10000,0.90000
   141,'B141        ', 138.0000,1,   2,   2,   1,0.97268, -10.3129,1.05000,0.95000,1.10000,0.90000
   142,'B142        ', 138.0000,1,   2,   2,   1,0.95906, -16.7979,1.05000,0.95000,1.10000,0.90000
   143,'B143        ', 138.0000,1,   2,   2,   1,0.98511, -13.2024,1.05000,0.95000,1.10000,0.90000
   144,'B144        ', 138.0000,1,   2,   2,   1,0.97791, -14.9427,1.05000,0.95000,1.10000,0.90000
   145,'B145        ', 138.0000,1,   2,   2,   1,0.98579, -14.5864,1.05000,0.95000,1.10000,0.90000
   146,'B146        ', 138.0000,1,   2,   2,   1,0.97218, -15.4500,1.05000,0.95000,1.10000,0.90000
   147,'B147        ', 138.0000,1,   2,   2,   1,0.97777, -14.9517,1.05000,0.95000,1.10000,0.90000
   148,'B148        ', 138.0000,1,   2,   2,   1,0.96719, -15.5638,1.05000,0.95000,1.10000,0.90000
   149,'B149        ', 138.0000,1,   2,   2,   1,0.97032, -13.9119,1.05000,0.95000,1.10000,0.90000
   150,'B150        ', 345.0000,2,   2,   2,   1,1.00794, -14.8635,1.05000,0.95000,1.10000,0.90000
   151,'C151        ', 345.0000,1,   3,   3,   1,0.99290, -13.1967,1.05000,0.95000,1.10000,0.90000
   152,'C152        ', 500.0000,1,   3,   3,   1,0.99976, -12.3286,1.05000,0.95000,1.10000,0.90000
   153,'C153        ', 500.0000,2,   3,   3,   1,0.99974, -12.3227,1.05000,0.95000,1.10000,0.90000
   154,'C154        ', 500.0000,1,   3,   3,   1,0.99512, -16.0624,1.05000,0.95000,1.10000,0.90000
   155,'C155        ', 500.0000,1,   3,   3,   1,0.99517, -16.0314,1.05000,0.95000,1.10000,0.90000
   156,'C156        ', 500.0000,1,   3,   3,   1,1.00568, -21.1997,1.05000,0.95000,1.10000,0.90000
   157,'C157        ', 345.0000,2,   3,   3,   1,0.98878, -20.3489,1.05000,0.95000,1.10000,0.90000
   158,'C158        ', 500.0000,2,   3,   3,   1,0.96214, -20.7681,1.05000,0.95000,1.10000,0.90000
   159,'C159        ', 500.0000,1,   3,   3,   1,0.96214, -20.7681,1.05000,0.95000,1.10000,0.90000
   160,'C160        ', 500.0000,1,   3,   3,   1,0.98497, -14.8876,1.05000,0.95000,1.10000,0.90000
   161,'C161        ', 500.0000,2,   3,   3,   1,0.98471, -14.8810,1.05000,0.95000,1.10000,0.90000
   162,'C162        ', 500.0000,1,   3,   3,   1,0.99801, -14.0004,1.05000,0.95000,1.10000,0.90000
   163,'C163        ', 500.0000,1,   3,   3,   1,1.00757, -12.2204,1.05000,0.95000,1.10000,0.90000
   164,'C164        ', 500.0000,1,   3,   3,   1,1.00750, -12.2226,1.05000,0.95000,1.10000,0.90000
   165,'C165        ', 500.0000,2,   3,   3,   1,1.00429, -13.9992,1.05000,0.95000,1.10000,0.90000
   166,'C166        ', 500.0000,2,   3,   3,   1,1.00445, -14.0114,1.05000,0.95000,1.10000,0.90000
   167,'C167        ', 138.0000,1,   3,   3,   1,1.00252,  -7.5996,1.05000,0.95000,1.10000,0.90000
   168,'C168        ', 138.0000,2,   3,   3,   1,1.00109, -14.7455,1.05000,0.95000,1.10000,0.90000
   169,'C169        ', 138.0000,2,   3,   3,   1,1.00086, -14.7419,1.05000,0.95000,1.10000,0.90000
   170,'C170        ', 138.0000,1,   3,   3,   1,0.99946, -15.3149,1.05000,0.95000,1.10000,0.90000
   171,'C171        ', 138.0000,2,   3,   3,   1,1.00664,  -4.1326,1.05000,0.95000,1.10000,0.90000
   172,'C172        ', 138.0000,1,   3,   3,   1,0.97904, -19.4242,1.05000,0.95000,1.10000,0.90000
   173,'C173        ',  32.0000,1,   3,   3,   1,1.02987, -21.3397,1.05000,0.95000,1.10000,0.90000
   174,'C174        ', 138.0000,1,   3,   3,   1,0.99078, -16.0726,1.05000,0.95000,1.10000,0.90000
   175,'C175        ', 138.0000,1,   3,   3,   1,0.99449, -15.2947,1.05000,0.95000,1.10000,0.90000
   176,'C176        ', 138.0000,1,   3,   3,   1,0.99450, -15.2868,1.05000,0.95000,1.10000,0.90000
   177,'C177        ', 138.0000,2,   3,   3,   1,1.00732, -12.4312,1.05000,0.95000,1.10000,0.90000
   178,'C178        ', 138.0000,2,   3,   3,   1,1.00788, -12.3127,1.05000,0.95000,1.10000,0.90000
   179,'C179        ', 138.0000,1,   3,   3,   1,0.99255, -15.5025,1.05000,0.95000,1.10000,0.90000
   180,'C180        ', 138.0000,1,   3,   3,   1,0.99426, -15.3127,1.05000,0.95000,1.10000,0.90000
   181,'C181        ', 138.0000,1,   3,   3,   1,0.99077, -16.0514,1.05000,0.95000,1.10000,0.90000
   182,'C182        ', 138.0000,1,   3,   3,   1,0.99569, -15.2039,1.05000,0.95000,1.10000,0.90000
   183,'C183        ', 138.0000,2,   3,   3,   1,1.00718,  -3.6211,1.05000,0.95000,1.10000,0.90000
   184,'C184        ', 138.0000,1,   3,   3,   1,1.00695,  -4.1817,1.05000,0.95000,1.10000,0.90000
   185,'C185        ', 138.0000,2,   3,   3,   1,1.00980, -14.5045,1.05000,0.95000,1.10000,0.90000
   186,'C186        ', 138.0000,1,   3,   3,   1,0.99706, -15.0857,1.05000,0.95000,1.10000,0.90000
   187,'C187        ',  16.0000,1,   3,   3,   1,1.02156, -14.1150,1.05000,0.95000,1.10000,0.90000
   188,'C188        ', 138.0000,2,   3,   3,   1,1.00788, -10.9974,1.05000,0.95000,1.10000,0.90000
   189,'C189        ', 138.0000,1,   3,   3,   1,0.99293,  -7.9273,1.05000,0.95000,1.10000,0.90000
   190,'C190        ', 138.0000,1,   3,   3,   1,0.97911, -19.4255,1.05000,0.95000,1.10000,0.90000
   191,'C191        ', 138.0000,1,   3,   3,   1,0.99181, -15.6107,1.05000,0.95000,1.10000,0.90000
   192,'C192        ', 138.0000,1,   3,   3,   1,0.99906, -13.8704,1.05000,0.95000,1.10000,0.90000
   193,'C193        ', 138.0000,1,   3,   3,   1,0.99996, -14.4653,1.05000,0.95000,1.10000,0.90000
   194,'C194        ', 138.0000,2,   3,   3,   1,0.99046, -16.0969,1.05000,0.95000,1.10000,0.90000
   195,'C195        ', 138.0000,2,   3,   3,   1,1.00788,  -4.8220,1.05000,0.95000,1.10000,0.90000
   196,'C196        ', 138.0000,1,   3,   3,   1,0.99154,  -8.1180,1.05000,0.95000,1.10000,0.90000
   197,'C197        ', 138.0000,1,   3,   3,   1,0.99258,  -7.9599,1.05000,0.95000,1.10000,0.90000
   198,'C198        ', 138.0000,1,   3,   3,   1,1.00688,  -4.5443,1.05000,0.95000,1.10000,0.90000
   199,'C199        ', 138.0000,1,   3,   3,   1,0.99673,  -7.4833,1.05000,0.95000,1.10000,0.90000
   200,'C200        ', 138.0000,1,   3,   3,   1,0.99669,  -7.3784,1.05000,0.95000,1.10000,0.90000
   201,'C201        ', 138.0000,2,   3,   3,   1,1.00788,  -4.6540,1.05000,0.95000,1.10000,0.90000
   202,'C202        ', 138.0000,1,   3,   3,   1,1.00790,  -4.6889,1.05000,0.95000,1.10000,0.90000
   203,'C203        ', 138.0000,1,   3,   3,   1,1.00761,  -4.7332,1.05000,0.95000,1.10000,0.90000
   204,'C204        ', 138.0000,1,   3,   3,   1,0.99430, -15.3058,1.05000,0.95000,1.10000,0.90000
   205,'C205        ', 138.0000,1,   3,   3,   1,0.99489, -15.2643,1.05000,0.95000,1.10000,0.90000
   206,'C206        ', 138.0000,1,   3,   3,   1,0.99312,  -7.8243,1.05000,0.95000,1.10000,0.90000
   207,'C207        ', 138.0000,2,   3,   3,   1,1.00573, -12.7709,1.05000,0.95000,1.10000,0.90000
   208,'C208        ', 138.0000,1,   3,   3,   1,0.99962, -13.0925,1.05000,0.95000,1.10000,0.90000
   209,'C209        ', 138.0000,2,   3,   3,   1,0.99843,  -6.6964,1.05000,0.95000,1.10000,0.90000
   210,'C210        ', 138.0000,1,   3,   3,   1,0.99177, -15.7146,1.05000,0.95000,1.10000,0.90000
   211,'C211        ', 138.0000,1,   3,   3,   1,0.99082, -16.0444,1.05000,0.95000,1.10000,0.90000
   212,'C212        ', 138.0000,1,   3,   3,   1,0.99295,  -7.9263,1.05000,0.95000,1.10000,0.90000
   213,'C213        ', 138.0000,1,   3,   3,   1,1.00786,  -4.6788,1.05000,0.95000,1.10000,0.90000
   214,'C214        ', 138.0000,1,   3,   3,   1,1.00465, -11.5137,1.05000,0.95000,1.10000,0.90000
   215,'C215        ', 138.0000,1,   3,   3,   1,1.00486, -11.4784,1.05000,0.95000,1.10000,0.90000
   216,'C216        ', 500.0000,1,   3,   3,   1,0.99790, -15.5464,1.05000,0.95000,1.10000,0.90000
   217,'D217        ', 345.0000,2,   4,   4,   1,0.99870, -17.8411,1.05000,0.95000,1.10000,0.90000
   218,'D218        ', 345.0000,1,   4,   4,   1,0.99852, -17.8412,1.05000,0.95000,1.10000,0.90000
   219,'D219        ', 345.0000,1,   4,   4,   1,1.00481, -19.5627,1.05000,0.95000,1.10000,0.90000
   220,'D220        ', 345.0000,1,   4,   4,   1,1.00478, -19.5806,1.05000,0.95000,1.10000,0.90000
   221,'D221        ', 345.0000,1,   4,   4,   1,1.00722, -19.8136,1.05000,0.95000,1.10000,0.90000
   222,'D222        ', 345.0000,1,   4,   4,   1,0.99768, -22.8252,1.05000,0.95000,1.10000,0.90000
   223,'D223        ', 345.0000,2,   4,   4,   1,1.00775, -19.0903,1.05000,0.95000,1.10000,0.90000
   224,'D224        ', 345.0000,2,   4,   4,   1,1.00788, -19.0833,1.05000,0.95000,1.10000,0.90000
   225,'D225        ', 345.0000,2,   4,   4,   1,1.00788, -19.1995,1.05000,0.95000,1.10000,0.90000
   226,'D226        ', 345.0000,1,   4,   4,   1,1.00323, -21.1817,1.05000,0.95000,1.10000,0.90000
   227,'D227        ', 345.0000,2,   4,   4,   1,0.99876, -17.8416,1.05000,0.95000,1.10000,0.90000
   228,'D228        ', 345.0000,2,   4,   4,   1,0.99858, -17.8417,1.05000,0.95000,1.10000,0.90000
   229,'D229        ', 138.0000,1,   4,   4,   1,1.00731, -17.0779,1.05000,0.95000,1.10000,0.90000
   230,'D230        ', 138.0000,1,   4,   4,   1,1.00791, -16.9434,1.05000,0.95000,1.10000,0.90000
   231,'D231        ', 138.0000,1,   4,   4,   1,1.00734, -17.0757,1.05000,0.95000,1.10000,0.90000
   232,'D232        ', 138.0000,1,   4,   4,   1,1.00791, -16.9434,1.05000,0.95000,1.10000,0.90000
   233,'D233        ', 138.0000,1,   4,   4,   1,1.00654, -17.0870,1.05000,0.95000,1.10000,0.90000
   234,'D234        ', 138.0000,1,   4,   4,   1,1.00700, -17.0441,1.05000,0.95000,1.10000,0.90000
   235,'D235        ', 138.0000,2,   4,   4,   1,1.00384, -18.9376,1.05000,0.95000,1.10000,0.90000
   236,'D236        ', 138.0000,2,   4,   4,   1,1.00739, -17.0293,1.05000,0.95000,1.10000,0.90000
   237,'D237        ', 138.0000,1,   4,   4,   1,1.00804, -17.8415,1.05000,0.95000,1.10000,0.90000
   238,'D238        ', 138.0000,1,   4,   4,   1,1.00243, -20.0772,1.05000,0.95000,1.10000,0.90000
   239,'D239        ', 138.0000,1,   4,   4,   1,1.00804, -17.8415,1.05000,0.95000,1.10000,0.90000
   240,'D240        ', 138.0000,1,   4,   4,   1,1.00318, -20.0166,1.05000,0.95000,1.10000,0.90000
   241,'D241        ', 138.0000,1,   4,   4,   1,1.00351, -19.9953,1.05000,0.95000,1.10000,0.90000
   242,'D242        ', 138.0000,1,   4,   4,   1,1.00745, -17.0598,1.05000,0.95000,1.10000,0.90000
   243,'D243        ', 138.0000,1,   4,   4,   1,1.00746, -17.0593,1.05000,0.95000,1.10000,0.90000
   244,'D244        ', 138.0000,1,   4,   4,   1,1.00127, -17.2344,1.05000,0.95000,1.10000,0.90000
   245,'D245        ', 138.0000,2,   4,   4,   1,1.00153, -17.2208,1.05000,0.95000,1.10000,0.90000
   246,'D246        ', 138.0000,2,   4,   4,   1,1.00858, -17.7043,1.05000,0.95000,1.10000,0.90000
   247,'D247        ', 138.0000,1,   4,   4,   1,1.00758, -16.6249,1.05000,0.95000,1.10000,0.90000
   248,'D248        ', 138.0000,2,   4,   4,   1,1.00760, -16.6237,1.05000,0.95000,1.10000,0.90000
   249,'D249        ', 138.0000,1,   4,   4,   1,1.00751, -18.0960,1.05000,0.95000,1.10000,0.90000
   250,'D250        ', 138.0000,1,   4,   4,   1,1.00771, -18.0859,1.05000,0.95000,1.10000,0.90000
   251,'D251        ', 138.0000,1,   4,   4,   1,1.00839, -17.7446,1.05000,0.95000,1.10000,0.90000
   252,'D252        ', 138.0000,2,   4,   4,   1,1.00376, -19.9712,1.05000,0.95000,1.10000,0.90000
   253,'D253        ', 138.0000,1,   4,   4,   1,1.00424, -20.9006,1.05000,0.95000,1.10000,0.90000
   254,'D254        ', 138.0000,1,   4,   4,   1,0.99667, -21.7797,1.05000,0.95000,1.10000,0.90000
   255,'D255        ', 138.0000,1,   4,   4,   1,1.00663, -20.1085,1.05000,0.95000,1.10000,0.90000
   256,'D256        ', 138.0000,1,   4,   4,   1,1.00822, -17.7383,1.05000,0.95000,1.10000,0.90000
   257,'D257        ', 138.0000,1,   4,   4,   1,1.00419, -18.8714,1.05000,0.95000,1.10000,0.90000
   258,'D258        ', 138.0000,1,   4,   4,   1,1.00422, -18.8687,1.05000,0.95000,1.10000,0.90000
   259,'D259        ', 138.0000,1,   4,   4,   1,1.00466, -19.8418,1.05000,0.95000,1.10000,0.90000
   260,'D260        ', 138.0000,1,   4,   4,   1,1.00466, -19.7987,1.05000,0.95000,1.10000,0.90000
   261,'D261        ', 138.0000,1,   4,   4,   1,1.00838, -17.7628,1.05000,0.95000,1.10000,0.90000
   262,'D262        ', 138.0000,1,   4,   4,   1,1.00840, -17.7607,1.05000,0.95000,1.10000,0.90000
   263,'D263        ', 138.0000,1,   4,   4,   1,1.00666, -18.1753,1.05000,0.95000,1.10000,0.90000
   264,'D264        ', 138.0000,1,   4,   4,   1,1.00672, -18.1707,1.05000,0.95000,1.10000,0.90000
   265,'D265        ', 138.0000,1,   4,   4,   1,1.00452, -18.7644,1.05000,0.95000,1.10000,0.90000
   266,'D266        ', 138.0000,1,   4,   4,   1,1.00598, -18.4864,1.05000,0.95000,1.10000,0.90000
   267,'D267        ', 138.0000,1,   4,   4,   1,1.00615, -18.4727,1.05000,0.95000,1.10000,0.90000
   268,'D268        ', 138.0000,1,   4,   4,   1,1.00273, -21.3393,1.05000,0.95000,1.10000,0.90000
   269,'D269        ', 138.0000,1,   4,   4,   1,1.00470, -18.7524,1.05000,0.95000,1.10000,0.90000
   270,'D270        ', 138.0000,1,   4,   4,   1,1.00536, -18.6935,1.05000,0.95000,1.10000,0.90000
   271,'D271        ', 138.0000,1,   4,   4,   1,1.00537, -18.7110,1.05000,0.95000,1.10000,0.90000
   272,'D272        ', 138.0000,1,   4,   4,   1,1.00325, -20.0177,1.05000,0.95000,1.10000,0.90000
   273,'D273        ', 138.0000,1,   4,   4,   1,1.00325, -20.0177,1.05000,0.95000,1.10000,0.90000
   274,'D274        ', 345.0000,2,   4,   4,   1,0.98519, -24.0431,1.05000,0.95000,1.10000,0.90000
   275,'E275        ', 345.0000,1,   5,   5,   1,1.01254, -28.4967,1.05000,0.95000,1.10000,0.90000
   276,'E276        ', 500.0000,1,   5,   5,   1,1.01294, -29.2208,1.05000,0.95000,1.10000,0.90000
   277,'E277        ', 500.0000,2,   5,   5,   1,1.01296, -29.2186,1.05000,0.95000,1.10000,0.90000
   278,'E278        ', 500.0000,1,   5,   5,   1,1.00222, -31.6639,1.05000,0.95000,1.10000,0.90000
   279,'E279        ', 500.0000,1,   5,   5,   1,1.00210, -31.6744,1.05000,0.95000,1.10000,0.90000
   280,'E280        ', 500.0000,1,   5,   5,   1,0.98730, -35.3237,1.05000,0.95000,1.10000,0.90000
   281,'E281        ', 345.0000,2,   5,   5,   1,0.99358, -21.1556,1.05000,0.95000,1.10000,0.90000
   282,'E282        ', 500.0000,2,   5,   5,   1,1.01000, -32.3067,1.05000,0.95000,1.10000,0.90000
   284,'E284        ', 500.0000,1,   5,   5,   1,0.98557, -34.3879,1.05000,0.95000,1.10000,0.90000
   285,'E285        ', 500.0000,2,   5,   5,   1,0.98537, -34.4057,1.05000,0.95000,1.10000,0.90000
   286,'E286        ', 500.0000,1,   5,   5,   1,0.98248, -36.1165,1.05000,0.95000,1.10000,0.90000
   287,'E287        ', 500.0000,1,   5,   5,   1,1.01402, -29.7700,1.05000,0.95000,1.10000,0.90000
   288,'E288        ', 500.0000,1,   5,   5,   1,1.01404, -29.7611,1.05000,0.95000,1.10000,0.90000
   289,'E289        ', 500.0000,2,   5,   5,   1,1.00224, -29.8235,1.05000,0.95000,1.10000,0.90000
   290,'E290        ', 500.0000,2,   5,   5,   1,1.00229, -29.8545,1.05000,0.95000,1.10000,0.90000
   291,'E291        ', 138.0000,1,   5,   5,   1,0.98963, -27.7233,1.05000,0.95000,1.10000,0.90000
   292,'E292        ', 138.0000,2,   5,   5,   1,1.00376, -21.0698,1.05000,0.95000,1.10000,0.90000
   293,'E293        ', 138.0000,2,   5,   5,   1,1.00364, -21.1048,1.05000,0.95000,1.10000,0.90000
   294,'E294        ', 138.0000,1,   5,   5,   1,1.00659, -16.3531,1.05000,0.95000,1.10000,0.90000
   295,'E295        ', 138.0000,2,   5,   5,   1,0.99324, -29.8317,1.05000,0.95000,1.10000,0.90000
   296,'E296        ', 138.0000,1,   5,   5,   1,0.98964, -35.6019,1.05000,0.95000,1.10000,0.90000
   297,'E297        ',  32.0000,2,   5,   5,   1,1.00000, -34.9138,1.05000,0.95000,1.10000,0.90000
   298,'E298        ', 138.0000,1,   5,   5,   1,1.00436, -17.2483,1.05000,0.95000,1.10000,0.90000
   299,'E299        ', 138.0000,1,   5,   5,   1,1.00117, -20.5827,1.05000,0.95000,1.10000,0.90000