0,   100.00, 33, 0, 1, 60.00     / PSS(R)E-33.7    FRI, AUG 24 2018  11:29
 GO Competition Network Model 03
 2015 S             REAL_TIME SEQUENCE RUN AT 2015/07/22 11.
     1,'A1          ', 115.0000,1,   1,   1,   1,1.00636,  -8.9866,1.05000,0.95000,1.10000,0.90000
     2,'A2          ', 115.0000,1,   1,   1,   1,1.01209, -10.2772,1.05000,0.95000,1.10000,0.90000
     3,'A3          ',  35.0000,1,   1,   1,   1,1.00282,  -9.7216,1.05000,0.95000,1.10000,0.90000
     4,'A4          ', 115.0000,1,   1,   1,   1,1.01395,  -7.9835,1.05000,0.95000,1.10000,0.90000
     5,'A5          ',  13.0000,1,   1,   1,   1,1.01190, -10.6800,1.05000,0.95000,1.10000,0.90000
     6,'A6          ',  14.0000,2,   1,   1,   1,1.00020,  -8.1393,1.05000,0.95000,1.10000,0.90000
     7,'A7          ', 115.0000,1,   1,   1,   1,1.00491,  -9.5010,1.05000,0.95000,1.10000,0.90000
     8,'A8          ',  13.0000,1,   1,   1,   1,1.01244, -10.2287,1.05000,0.95000,1.10000,0.90000
     9,'A9          ',  35.0000,1,   1,   1,   1,1.00370,  -9.4977,1.05000,0.95000,1.10000,0.90000
    10,'A10         ', 115.0000,1,   1,   1,   1,1.01136, -10.6369,1.05000,0.95000,1.10000,0.90000
    11,'A11         ', 115.0000,1,   1,   1,   1,1.00922, -11.0447,1.05000,0.95000,1.10000,0.90000
    12,'A12         ',  35.0000,1,   1,   1,   1,1.01098,  -9.0990,1.05000,0.95000,1.10000,0.90000
    13,'A13         ',  13.0000,1,   1,   1,   1,1.01706,  -9.8681,1.05000,0.95000,1.10000,0.90000
    15,'A15         ',  35.0000,1,   1,   1,   1,1.01197,  -9.7792,1.05000,0.95000,1.10000,0.90000
    16,'A16         ', 115.0000,1,   1,   1,   1,1.01660,  -7.8581,1.05000,0.95000,1.10000,0.90000
    17,'A17         ', 115.0000,1,   1,   1,   1,1.01670,  -7.9429,1.05000,0.95000,1.10000,0.90000
    18,'A18         ', 230.0000,1,   1,   1,   1,1.01006,  -6.7910,1.05000,0.95000,1.10000,0.90000
    19,'A19         ', 230.0000,1,   1,   1,   1,1.01017,  -6.7476,1.05000,0.95000,1.10000,0.90000
    20,'A20         ',  13.0000,1,   1,   1,   1,1.01396,  -8.0371,1.05000,0.95000,1.10000,0.90000
    21,'A21         ', 115.0000,1,   1,   1,   1,1.00715, -13.0571,1.05000,0.95000,1.10000,0.90000
    22,'A22         ', 115.0000,1,   1,   1,   1,1.00529,  -8.9190,1.05000,0.95000,1.10000,0.90000
    23,'A23         ', 115.0000,2,   1,   1,   1,1.01000,  -5.7024,1.05000,0.95000,1.10000,0.90000
    24,'A24         ', 115.0000,1,   1,   1,   1,0.99653, -10.2026,1.05000,0.95000,1.10000,0.90000
    25,'A25         ',  14.0000,2,   1,   1,   1,1.00020,  -8.1393,1.05000,0.95000,1.10000,0.90000
    27,'A27         ', 115.0000,1,   1,   1,   1,1.01117, -10.6253,1.05000,0.95000,1.10000,0.90000
    28,'A28         ',  35.0000,1,   1,   1,   1,0.99855,  -9.9405,1.05000,0.95000,1.10000,0.90000
    30,'A30         ', 115.0000,1,   1,   1,   1,0.99947, -10.0387,1.05000,0.95000,1.10000,0.90000
    31,'A31         ', 230.0000,2,   1,   1,   1,1.00990,  -6.7899,1.05000,0.95000,1.10000,0.90000
    32,'A32         ', 115.0000,1,   1,   1,   1,1.01174, -10.3983,1.05000,0.95000,1.10000,0.90000
    33,'A33         ', 230.0000,2,   1,   1,   1,1.00911,  -7.0094,1.05000,0.95000,1.10000,0.90000
    34,'A34         ',  35.0000,1,   1,   1,   1,1.00675,  -8.0965,1.05000,0.95000,1.10000,0.90000
    35,'A35         ', 230.0000,2,   1,   1,   1,1.01017,  -6.7476,1.05000,0.95000,1.10000,0.90000
    36,'A36         ', 230.0000,1,   1,   1,   1,1.00911,  -7.0094,1.05000,0.95000,1.10000,0.90000
    37,'A37         ', 230.0000,1,   1,   1,   1,1.01167,  -8.9654,1.05000,0.95000,1.10000,0.90000
    38,'A38         ', 230.0000,1,   1,   1,   1,1.00919,  -6.8838,1.05000,0.95000,1.10000,0.90000
    39,'A39         ',  35.0000,1,   1,   1,   1,0.99278,  -6.3092,1.05000,0.95000,1.10000,0.90000
    40,'A40         ', 115.0000,1,   1,   1,   1,1.01459,  -7.2383,1.05000,0.95000,1.10000,0.90000
    41,'A41         ', 230.0000,1,   1,   1,   1,1.00546,  -9.6404,1.05000,0.95000,1.10000,0.90000
    43,'A43         ', 115.0000,2,   1,   1,   1,1.01310,  -7.9646,1.05000,0.95000,1.10000,0.90000
    44,'A44         ', 115.0000,1,   1,   1,   1,1.00965,  -6.0511,1.05000,0.95000,1.10000,0.90000
    45,'A45         ', 230.0000,2,   1,   1,   1,1.00911,  -7.0094,1.05000,0.95000,1.10000,0.90000
    46,'A46         ', 230.0000,2,   1,   1,   1,1.00480,  -9.2258,1.05000,0.95000,1.10000,0.90000
    47,'A47         ', 115.0000,2,   1,   1,   1,1.01310,  -6.7556,1.05000,0.95000,1.10000,0.90000
    49,'A49         ',  35.0000,1,   1,   1,   1,1.00675,  -8.0965,1.05000,0.95000,1.10000,0.90000
    50,'A50         ', 115.0000,1,   1,   1,   1,1.01249, -10.2446,1.05000,0.95000,1.10000,0.90000
    51,'A51         ',  13.0000,1,   1,   1,   1,0.99594, -10.2365,1.05000,0.95000,1.10000,0.90000
    52,'A52         ', 230.0000,2,   1,   1,   1,1.00510,  -9.6176,1.05000,0.95000,1.10000,0.90000
    53,'A53         ', 115.0000,1,   1,   1,   1,1.01619, -11.1164,1.05000,0.95000,1.10000,0.90000
    54,'A54         ',  35.0000,1,   1,   1,   1,1.00022, -11.1207,1.05000,0.95000,1.10000,0.90000
    55,'A55         ', 230.0000,2,   1,   1,   1,1.01080,  -8.1393,1.05000,0.95000,1.10000,0.90000
    56,'A56         ',  35.0000,1,   1,   1,   1,1.01184,  -9.0186,1.05000,0.95000,1.10000,0.90000
    57,'A57         ', 115.0000,1,   1,   1,   1,0.99866, -13.7543,1.05000,0.95000,1.10000,0.90000
    58,'A58         ', 115.0000,1,   1,   1,   1,1.02213, -10.5046,1.05000,0.95000,1.10000,0.90000
    59,'A59         ',  35.0000,2,   1,   1,   1,1.03415,  -6.2474,1.05000,0.95000,1.10000,0.90000
    60,'A60         ', 115.0000,1,   1,   1,   1,1.00426,  -9.4392,1.05000,0.95000,1.10000,0.90000
    61,'A61         ',  13.0000,1,   1,   1,   1,1.01111, -10.6404,1.05000,0.95000,1.10000,0.90000
    62,'A62         ', 115.0000,1,   1,   1,   1,1.01693, -11.0501,1.05000,0.95000,1.10000,0.90000
    63,'A63         ', 230.0000,1,   1,   1,   1,1.00771,  -9.2735,1.05000,0.95000,1.10000,0.90000
    64,'A64         ',  35.0000,1,   1,   1,   1,1.00927,  -5.7246,1.05000,0.95000,1.10000,0.90000
    65,'A65         ',  14.0000,2,   1,   1,   1,1.01743,  -7.7992,1.05000,0.95000,1.10000,0.90000
    66,'A66         ', 230.0000,1,   1,   1,   1,1.01006,  -6.7910,1.05000,0.95000,1.10000,0.90000
    67,'A67         ', 115.0000,1,   1,   1,   1,1.00980,  -8.0368,1.05000,0.95000,1.10000,0.90000
    68,'A68         ', 115.0000,1,   1,   1,   1,1.01194, -12.1356,1.05000,0.95000,1.10000,0.90000
    69,'A69         ', 230.0000,1,   1,   1,   1,1.01021,  -6.7402,1.05000,0.95000,1.10000,0.90000
    70,'A70         ',  35.0000,1,   1,   1,   1,1.00075,  -7.4026,1.05000,0.95000,1.10000,0.90000
    71,'A71         ', 115.0000,2,   1,   1,   1,1.01590,  -6.3369,1.05000,0.95000,1.10000,0.90000
    72,'A72         ', 115.0000,1,   1,   1,   1,1.01116, -10.5796,1.05000,0.95000,1.10000,0.90000
    73,'A73         ', 115.0000,1,   1,   1,   1,1.00549,  -9.4902,1.05000,0.95000,1.10000,0.90000
    74,'A74         ', 115.0000,1,   1,   1,   1,1.01255, -10.2140,1.05000,0.95000,1.10000,0.90000
    75,'A75         ',  13.0000,1,   1,   1,   1,1.01443,  -8.0945,1.05000,0.95000,1.10000,0.90000
    76,'A76         ', 115.0000,1,   1,   1,   1,1.01773, -10.9696,1.05000,0.95000,1.10000,0.90000
    77,'A77         ',  35.0000,1,   1,   1,   1,0.98893,  -9.9382,1.05000,0.95000,1.10000,0.90000
    78,'A78         ',  35.0000,1,   1,   1,   1,0.99901, -10.0908,1.05000,0.95000,1.10000,0.90000
    79,'A79         ', 230.0000,1,   1,   1,   1,1.01164,  -9.0948,1.05000,0.95000,1.10000,0.90000
    80,'A80         ',  14.0000,2,   1,   1,   1,1.01648,  -7.8625,1.05000,0.95000,1.10000,0.90000
    81,'A81         ', 115.0000,1,   1,   1,   1,1.01732,  -9.8389,1.05000,0.95000,1.10000,0.90000
    82,'A82         ', 115.0000,1,   1,   1,   1,1.01617, -11.1190,1.05000,0.95000,1.10000,0.90000
    83,'A83         ', 115.0000,1,   1,   1,   1,1.01307, -12.0027,1.05000,0.95000,1.10000,0.90000
    84,'A84         ', 115.0000,1,   1,   1,   1,1.01155, -12.1754,1.05000,0.95000,1.10000,0.90000
    85,'A85         ', 115.0000,1,   1,   1,   1,0.99861, -13.7594,1.05000,0.95000,1.10000,0.90000
    86,'A86         ', 230.0000,2,   1,   1,   1,1.01070,  -6.1150,1.05000,0.95000,1.10000,0.90000
    87,'A87         ', 230.0000,2,   1,   1,   1,1.00556,  -9.6426,1.05000,0.95000,1.10000,0.90000
    88,'A88         ',  35.0000,1,   1,   1,   1,1.00689,  -7.7551,1.05000,0.95000,1.10000,0.90000
    89,'A89         ',  35.0000,1,   1,   1,   1,0.99942,  -7.0516,1.05000,0.95000,1.10000,0.90000
    90,'A90         ', 230.0000,2,   1,   1,   1,1.00780,  -9.2124,1.05000,0.95000,1.10000,0.90000
    91,'A91         ', 115.0000,1,   1,   1,   1,1.01347, -11.9353,1.05000,0.95000,1.10000,0.90000
    92,'A92         ', 115.0000,1,   1,   1,   1,1.01007, -11.0197,1.05000,0.95000,1.10000,0.90000
    93,'A93         ', 115.0000,2,   1,   1,   1,1.01610,  -7.9049,1.05000,0.95000,1.10000,0.90000
    94,'A94         ', 115.0000,1,   1,   1,   1,0.99709, -10.1679,1.05000,0.95000,1.10000,0.90000
    95,'B95         ', 345.0000,1,   1,   2,   1,0.99967, -13.6195,1.05000,0.95000,1.10000,0.90000
    96,'B96         ', 345.0000,1,   1,   2,   1,0.99962, -13.6231,1.05000,0.95000,1.10000,0.90000
    97,'B97         ', 345.0000,1,   1,   2,   1,1.00105, -13.5934,1.05000,0.95000,1.10000,0.90000
    98,'B98         ', 345.0000,2,   1,   2,   1,1.00110, -13.5956,1.05000,0.95000,1.10000,0.90000
    99,'B99         ', 345.0000,2,   1,   2,   1,1.00279, -13.2656,1.05000,0.95000,1.10000,0.90000
   100,'B100        ', 345.0000,2,   1,   2,   1,1.00279, -13.2764,1.05000,0.95000,1.10000,0.90000
   101,'B101        ', 345.0000,1,   1,   2,   1,1.01222, -14.4829,1.05000,0.95000,1.10000,0.90000
   102,'B102        ', 345.0000,1,   1,   2,   1,1.01396, -14.3399,1.05000,0.95000,1.10000,0.90000
   103,'B103        ', 138.0000,1,   1,   2,   1,1.02467, -11.1198,1.05000,0.95000,1.10000,0.90000
   104,'B104        ', 138.0000,1,   1,   2,   1,1.02084,   7.1630,1.05000,0.95000,1.10000,0.90000
   105,'B105        ', 138.0000,1,   1,   2,   1,1.02107,   7.0224,1.05000,0.95000,1.10000,0.90000
   106,'B106        ', 138.0000,1,   1,   2,   1,1.02289,  -5.1290,1.05000,0.95000,1.10000,0.90000
   107,'B107        ', 138.0000,1,   1,   2,   1,1.02291,  -5.1317,1.05000,0.95000,1.10000,0.90000
   108,'B108        ', 138.0000,1,   1,   2,   1,1.02870,   9.9928,1.05000,0.95000,1.10000,0.90000
   109,'B109        ', 138.0000,1,   1,   2,   1,1.01389, -12.3744,1.05000,0.95000,1.10000,0.90000
   110,'B110        ', 138.0000,1,   1,   2,   1,1.02299,  -5.1072,1.05000,0.95000,1.10000,0.90000
   111,'B111        ', 138.0000,1,   1,   2,   1,1.02298,  -5.1096,1.05000,0.95000,1.10000,0.90000
   112,'B112        ', 138.0000,1,   1,   2,   1,1.02755,  -6.1100,1.05000,0.95000,1.10000,0.90000
   113,'B113        ', 138.0000,1,   1,   2,   1,1.02755,  -6.1100,1.05000,0.95000,1.10000,0.90000
   114,'B114        ', 138.0000,1,   1,   2,   1,1.02764,  -6.1033,1.05000,0.95000,1.10000,0.90000
   115,'B115        ', 138.0000,1,   1,   2,   1,1.01372, -12.7298,1.05000,0.95000,1.10000,0.90000
   116,'B116        ', 138.0000,2,   1,   2,   1,1.01972, -10.9172,1.05000,0.95000,1.10000,0.90000
   117,'B117        ', 138.0000,2,   1,   2,   1,1.01988, -10.9564,1.05000,0.95000,1.10000,0.90000
   118,'B118        ', 138.0000,1,   1,   2,   1,1.01987, -11.6107,1.05000,0.95000,1.10000,0.90000
   119,'B119        ', 138.0000,1,   1,   2,   1,1.01998, -11.6030,1.05000,0.95000,1.10000,0.90000
   120,'B120        ', 138.0000,1,   1,   2,   1,1.01348, -12.5158,1.05000,0.95000,1.10000,0.90000
   121,'B121        ', 138.0000,2,   1,   2,   1,1.01633, -12.0413,1.05000,0.95000,1.10000,0.90000
   122,'B122        ', 138.0000,1,   1,   2,   1,1.01635, -12.0385,1.05000,0.95000,1.10000,0.90000
   123,'B123        ', 138.0000,1,   1,   2,   1,1.01635, -12.0385,1.05000,0.95000,1.10000,0.90000
   124,'B124        ', 138.0000,1,   1,   2,   1,1.01633, -12.0413,1.05000,0.95000,1.10000,0.90000
   125,'B125        ', 138.0000,1,   1,   2,   1,1.01393, -12.3709,1.05000,0.95000,1.10000,0.90000
   126,'B126        ', 138.0000,1,   1,   2,   1,1.01373, -12.7299,1.05000,0.95000,1.10000,0.90000
   127,'B127        ', 138.0000,1,   1,   2,   1,1.02183,  -4.7906,1.05000,0.95000,1.10000,0.90000
   128,'B128        ', 138.0000,1,   1,   2,   1,1.02168,  -4.7756,1.05000,0.95000,1.10000,0.90000
   129,'B129        ', 138.0000,1,   1,   2,   1,1.01219,  -3.3758,1.05000,0.95000,1.10000,0.90000
   130,'B130        ', 138.0000,1,   1,   2,   1,1.01232,  -3.3738,1.05000,0.95000,1.10000,0.90000
   131,'B131        ', 138.0000,2,   1,   2,   1,1.02742,  -6.1219,1.05000,0.95000,1.10000,0.90000
   132,'B132        ', 138.0000,1,   1,   2,   1,1.01960, -10.9259,1.05000,0.95000,1.10000,0.90000
   133,'B133        ', 138.0000,2,   1,   2,   1,1.01772, -13.1353,1.05000,0.95000,1.10000,0.90000
   134,'B134        ', 138.0000,2,   1,   2,   1,0.99726, -15.0839,1.05000,0.95000,1.10000,0.90000
   135,'B135        ', 138.0000,1,   1,   2,   1,1.01361, -12.3958,1.05000,0.95000,1.10000,0.90000
   136,'B136        ', 138.0000,1,   1,   2,   1,1.01630, -12.0436,1.05000,0.95000,1.10000,0.90000
   137,'B137        ', 138.0000,1,   1,   2,   1,1.00700,  -5.2501,1.05000,0.95000,1.10000,0.90000
   138,'B138        ', 138.0000,1,   1,   2,   1,1.01535,   1.7323,1.05000,0.95000,1.10000,0.90000
   139,'B139        ', 138.0000,1,   1,   2,   1,1.01535,   1.7323,1.05000,0.95000,1.10000,0.90000
   140,'B140        ', 138.0000,1,   1,   2,   1,1.02332,  -5.0623,1.05000,0.95000,1.10000,0.90000
   141,'B141        ', 138.0000,1,   1,   2,   1,1.02379,  -4.9760,1.05000,0.95000,1.10000,0.90000
   142,'B142        ', 138.0000,1,   1,   2,   1,1.01978, -11.7517,1.05000,0.95000,1.10000,0.90000
   143,'B143        ', 138.0000,1,   1,   2,   1,1.01989, -11.7682,1.05000,0.95000,1.10000,0.90000
   144,'B144        ', 138.0000,1,   1,   2,   1,1.01393, -12.3708,1.05000,0.95000,1.10000,0.90000
   145,'B145        ', 138.0000,1,   1,   2,   1,1.02000, -10.9965,1.05000,0.95000,1.10000,0.90000
   146,'B146        ', 138.0000,1,   1,   2,   1,1.02080,  -5.5790,1.05000,0.95000,1.10000,0.90000
   147,'B147        ', 138.0000,1,   1,   2,   1,1.02079,  -5.5902,1.05000,0.95000,1.10000,0.90000
   148,'B148        ', 138.0000,1,   1,   2,   1,1.01649, -13.3813,1.05000,0.95000,1.10000,0.90000
   149,'B149        ', 138.0000,1,   1,   2,   1,1.01685, -13.3643,1.05000,0.95000,1.10000,0.90000
   150,'B150        ', 138.0000,1,   1,   2,   1,1.01365, -12.7333,1.05000,0.95000,1.10000,0.90000
   151,'B151        ', 138.0000,2,   1,   2,   1,1.01643,  -2.3885,1.05000,0.95000,1.10000,0.90000
   152,'B152        ', 138.0000,2,   1,   2,   1,1.02455, -11.1179,1.05000,0.95000,1.10000,0.90000
   153,'B153        ', 138.0000,1,   1,   2,   1,1.01937, -11.3108,1.05000,0.95000,1.10000,0.90000
   154,'B154        ', 138.0000,1,   1,   2,   1,1.01945, -11.3300,1.05000,0.95000,1.10000,0.90000
   155,'B155        ', 138.0000,1,   1,   2,   1,1.02311,  -5.1520,1.05000,0.95000,1.10000,0.90000
   156,'B156        ', 138.0000,2,   1,   2,   1,1.02316,  -5.1383,1.05000,0.95000,1.10000,0.90000
   157,'B157        ', 138.0000,1,   1,   2,   1,1.02666,  -5.2474,1.05000,0.95000,1.10000,0.90000
   158,'B158        ', 138.0000,1,   1,   2,   1,1.02674,  -5.2422,1.05000,0.95000,1.10000,0.90000
   159,'B159        ', 138.0000,2,   1,   2,   1,1.01930,  -5.2738,1.05000,0.95000,1.10000,0.90000
   160,'B160        ', 138.0000,1,   1,   2,   1,1.01931,  -5.2740,1.05000,0.95000,1.10000,0.90000
   161,'B161        ', 138.0000,1,   1,   2,   1,1.01783, -11.8391,1.05000,0.95000,1.10000,0.90000
   162,'B162        ', 138.0000,1,   1,   2,   1,1.01772, -11.8603,1.05000,0.95000,1.10000,0.90000
   163,'B163        ', 138.0000,1,   1,   2,   1,1.02147,  -5.1644,1.05000,0.95000,1.10000,0.90000
   164,'B164        ', 138.0000,1,   1,   2,   1,1.02148,  -5.1603,1.05000,0.95000,1.10000,0.90000
   165,'B165        ', 138.0000,1,   1,   2,   1,1.02305,  -5.1564,1.05000,0.95000,1.10000,0.90000
   166,'B166        ', 138.0000,1,   1,   2,   1,1.02312,  -5.1419,1.05000,0.95000,1.10000,0.90000
   167,'B167        ', 138.0000,1,   1,   2,   1,1.01866, -11.6438,1.05000,0.95000,1.10000,0.90000
   168,'B168        ', 138.0000,1,   1,   2,   1,1.01856, -11.6123,1.05000,0.95000,1.10000,0.90000
   169,'B169        ', 138.0000,1,   1,   2,   1,1.02585,   9.1739,1.05000,0.95000,1.10000,0.90000
   170,'B170        ', 138.0000,1,   1,   2,   1,1.02593,   9.1798,1.05000,0.95000,1.10000,0.90000
   171,'B171        ', 138.0000,1,   1,   2,   1,1.02126,  -5.1917,1.05000,0.95000,1.10000,0.90000
   172,'B172        ', 138.0000,1,   1,   2,   1,1.02129,  -5.1906,1.05000,0.95000,1.10000,0.90000
   173,'B173        ', 138.0000,1,   1,   2,   1,1.00926,  -4.1462,1.05000,0.95000,1.10000,0.90000
   174,'B174        ', 138.0000,1,   1,   2,   1,1.00986,  -4.1030,1.05000,0.95000,1.10000,0.90000
   175,'B175        ', 138.0000,1,   1,   2,   1,1.01483, -13.0780,1.05000,0.95000,1.10000,0.90000
   176,'B176        ', 138.0000,1,   1,   2,   1,1.01493, -13.0898,1.05000,0.95000,1.10000,0.90000
   177,'B177        ', 138.0000,1,   1,   2,   1,1.01363, -12.6655,1.05000,0.95000,1.10000,0.90000
   178,'B178        ', 138.0000,1,   1,   2,   1,1.01363, -12.6655,1.05000,0.95000,1.10000,0.90000
   179,'B179        ', 138.0000,1,   1,   2,   1,1.01601,   3.2617,1.05000,0.95000,1.10000,0.90000
   180,'B180        ', 138.0000,1,   1,   2,   1,1.01562,   3.4006,1.05000,0.95000,1.10000,0.90000
   181,'B181        ', 138.0000,1,   1,   2,   1,1.01884,  -4.1324,1.05000,0.95000,1.10000,0.90000
   182,'B182        ', 138.0000,1,   1,   2,   1,1.01897,  -4.1492,1.05000,0.95000,1.10000,0.90000
   183,'B183        ', 138.0000,1,   1,   2,   1,1.01723,  -3.2645,1.05000,0.95000,1.10000,0.90000
   184,'B184        ', 138.0000,1,   1,   2,   1,1.02097, -11.0069,1.05000,0.95000,1.10000,0.90000
   185,'B185        ', 138.0000,1,   1,   2,   1,1.02100, -11.0367,1.05000,0.95000,1.10000,0.90000
   186,'B186        ', 138.0000,1,   1,   2,   1,1.02117, -10.9970,1.05000,0.95000,1.10000,0.90000
   187,'B187        ', 138.0000,1,   1,   2,   1,1.02124, -11.0254,1.05000,0.95000,1.10000,0.90000
   188,'B188        ', 138.0000,1,   1,   2,   1,1.01672,  -2.7799,1.05000,0.95000,1.10000,0.90000
   189,'B189        ', 138.0000,1,   1,   2,   1,1.01660,  -2.7613,1.05000,0.95000,1.10000,0.90000
   190,'B190        ', 138.0000,2,   1,   2,   1,1.03300,  -5.6438,1.05000,0.95000,1.10000,0.90000
   191,'B191        ', 138.0000,1,   1,   2,   1,1.01383, -12.4395,1.05000,0.95000,1.10000,0.90000
   192,'B192        ', 138.0000,1,   1,   2,   1,1.01386, -12.4373,1.05000,0.95000,1.10000,0.90000
   193,'B193        ', 138.0000,1,   1,   2,   1,1.01371, -12.3877,1.05000,0.95000,1.10000,0.90000
   194,'B194        ', 138.0000,1,   1,   2,   1,1.02296,  -8.8043,1.05000,0.95000,1.10000,0.90000
   195,'B195        ', 138.0000,1,   1,   2,   1,1.02308,  -8.7948,1.05000,0.95000,1.10000,0.90000
   196,'B196        ', 138.0000,1,   1,   2,   1,1.03301,  -5.6440,1.05000,0.95000,1.10000,0.90000
   197,'B197        ', 138.0000,1,   1,   2,   1,1.01635, -12.0385,1.05000,0.95000,1.10000,0.90000
   198,'B198        ', 138.0000,1,   1,   2,   1,1.01347, -12.5702,1.05000,0.95000,1.10000,0.90000
   199,'B199        ', 138.0000,1,   1,   2,   1,1.01348, -12.5700,1.05000,0.95000,1.10000,0.90000
   200,'B200        ', 138.0000,1,   1,   2,   1,1.02294,  -5.1553,1.05000,0.95000,1.10000,0.90000
   201,'B201        ', 138.0000,1,   1,   2,   1,1.02296,  -5.1558,1.05000,0.95000,1.10000,0.90000
   202,'B202        ', 138.0000,1,   1,   2,   1,1.02291,  -5.1426,1.05000,0.95000,1.10000,0.90000
   203,'B203        ', 138.0000,1,   1,   2,   1,1.02290,  -5.1398,1.05000,0.95000,1.10000,0.90000
   204,'B204        ', 138.0000,1,   1,   2,   1,1.02292,  -5.1308,1.05000,0.95000,1.10000,0.90000
   205,'B205        ', 138.0000,1,   1,   2,   1,1.02289,  -5.1263,1.05000,0.95000,1.10000,0.90000
   206,'B206        ', 138.0000,1,   1,   2,   1,1.02299,  -5.1404,1.05000,0.95000,1.10000,0.90000
   207,'B207        ', 138.0000,1,   1,   2,   1,1.02297,  -5.1398,1.05000,0.95000,1.10000,0.90000
   208,'B208        ', 138.0000,1,   1,   2,   1,1.01708,  -6.3149,1.05000,0.95000,1.10000,0.90000
   209,'B209        ', 138.0000,1,   1,   2,   1,1.01946, -11.3945,1.05000,0.95000,1.10000,0.90000
   210,'B210        ', 138.0000,1,   1,   2,   1,1.01946, -11.3945,1.05000,0.95000,1.10000,0.90000
   211,'B211        ', 138.0000,1,   1,   2,   1,1.01946, -11.3945,1.05000,0.95000,1.10000,0.90000
   212,'C212        ', 345.0000,1,   1,   3,   1,1.00874,  -2.6580,1.05000,0.95000,1.10000,0.90000
   213,'C213        ', 345.0000,1,   1,   3,   1,1.02733,  -0.4778,1.05000,0.95000,1.10000,0.90000
   214,'C214        ', 345.0000,1,   1,   3,   1,1.00241,  -5.6016,1.05000,0.95000,1.10000,0.90000
   215,'C215        ', 345.0000,1,   1,   3,   1,1.00237,  -5.6079,1.05000,0.95000,1.10000,0.90000
   216,'C216        ', 345.0000,1,   1,   3,   1,1.00811,  -4.6452,1.05000,0.95000,1.10000,0.90000
   217,'C217        ', 345.0000,1,   1,   3,   1,1.00817,  -4.6657,1.05000,0.95000,1.10000,0.90000
   218,'C218        ', 345.0000,1,   1,   3,   1,1.01222,  -2.9792,1.05000,0.95000,1.10000,0.90000
   219,'C219        ', 345.0000,1,   1,   3,   1,1.01215,  -2.9976,1.05000,0.95000,1.10000,0.90000
   220,'C220        ', 500.0000,1,   1,   3,   1,1.01366,  -3.3014,1.05000,0.95000,1.10000,0.90000
   221,'C221        ', 345.0000,2,   1,   3,   1,1.01128,  -2.6798,1.05000,0.95000,1.10000,0.90000
   222,'C222        ', 345.0000,2,   1,   3,   1,1.02864,  -0.3257,1.05000,0.95000,1.10000,0.90000
   223,'C223        ', 500.0000,3,   1,   3,   1,1.01200,   0.0000,1.05000,0.95000,1.10000,0.90000
   224,'C224        ', 500.0000,2,   1,   3,   1,1.01200,  -0.0128,1.05000,0.95000,1.10000,0.90000
   225,'C225        ', 500.0000,1,   1,   3,   1,1.00426,  -1.4537,1.05000,0.95000,1.10000,0.90000
   226,'C226        ', 345.0000,1,   1,   3,   1,0.99702,  -7.0885,1.05000,0.95000,1.10000,0.90000
   227,'C227        ', 345.0000,1,   1,   3,   1,0.99709,  -7.0946,1.05000,0.95000,1.10000,0.90000
   228,'C228        ', 345.0000,1,   1,   3,   1,1.01272,  -2.0070,1.05000,0.95000,1.10000,0.90000
   229,'C229        ', 345.0000,1,   1,   3,   1,1.01269,  -2.0080,1.05000,0.95000,1.10000,0.90000
   230,'C230        ', 345.0000,1,   1,   3,   1,1.01468,  -1.8171,1.05000,0.95000,1.10000,0.90000
   231,'C231        ', 345.0000,1,   1,   3,   1,1.01469,  -1.8166,1.05000,0.95000,1.10000,0.90000
   232,'C232        ', 500.0000,1,   1,   3,   1,1.00408,  -0.9790,1.05000,0.95000,1.10000,0.90000
   233,'C233        ', 500.0000,2,   1,   3,   1,1.00410,  -0.9743,1.05000,0.95000,1.10000,0.90000
   234,'C234        ', 345.0000,1,   1,   3,   1,1.00764,  -1.8460,1.05000,0.95000,1.10000,0.90000
   235,'C235        ', 500.0000,1,   1,   3,   1,1.02794,  -2.6283,1.05000,0.95000,1.10000,0.90000
   236,'C236        ', 345.0000,2,   1,   3,   1,1.02045, -11.0224,1.05000,0.95000,1.10000,0.90000
   237,'C237        ', 138.0000,1,   1,   3,   1,1.00415,  -2.8779,1.05000,0.95000,1.10000,0.90000
   238,'C238        ', 138.0000,1,   1,   3,   1,1.00768,  -7.9736,1.05000,0.95000,1.10000,0.90000
   239,'C239        ', 138.0000,1,   1,   3,   1,1.00445,  -2.8281,1.05000,0.95000,1.10000,0.90000
   240,'C240        ', 138.0000,1,   1,   3,   1,1.00444,  -2.8313,1.05000,0.95000,1.10000,0.90000
   241,'C241        ', 138.0000,1,   1,   3,   1,1.00941,  -4.1548,1.05000,0.95000,1.10000,0.90000
   242,'C242        ', 138.0000,1,   1,   3,   1,0.99608,  -1.0704,1.05000,0.95000,1.10000,0.90000
   243,'C243        ', 138.0000,1,   1,   3,   1,0.99604,  -1.1021,1.05000,0.95000,1.10000,0.90000
   244,'C244        ', 138.0000,1,   1,   3,   1,1.00423,   1.2161,1.05000,0.95000,1.10000,0.90000
   245,'C245        ', 138.0000,1,   1,   3,   1,1.00414,   1.1904,1.05000,0.95000,1.10000,0.90000
   246,'C246        ',  24.0000,2,   1,   3,   1,1.01364,   5.4197,1.05000,0.95000,1.10000,0.90000
   247,'C247        ', 138.0000,1,   1,   3,   1,1.00162,  -2.4907,1.05000,0.95000,1.10000,0.90000
   248,'C248        ', 138.0000,1,   1,   3,   1,1.00385,   1.1417,1.05000,0.95000,1.10000,0.90000
   249,'C249        ', 138.0000,1,   1,   3,   1,1.00815,  -7.9355,1.05000,0.95000,1.10000,0.90000
   250,'C250        ', 138.0000,2,   1,   3,   1,1.00591,  -2.6355,1.05000,0.95000,1.10000,0.90000
   251,'C251        ', 138.0000,1,   1,   3,   1,0.99703,  -2.0679,1.05000,0.95000,1.10000,0.90000
   252,'C252        ', 138.0000,1,   1,   3,   1,0.99694,  -2.0468,1.05000,0.95000,1.10000,0.90000
   253,'C253        ', 138.0000,1,   1,   3,   1,1.01059,  -4.2398,1.05000,0.95000,1.10000,0.90000
   254,'C254        ', 138.0000,1,   1,   3,   1,1.01050,  -5.8096,1.05000,0.95000,1.10000,0.90000
   255,'C255        ', 138.0000,1,   1,   3,   1,1.00591,  -2.6355,1.05000,0.95000,1.10000,0.90000
   256,'C256        ', 138.0000,2,   1,   3,   1,1.01703,  -3.4143,1.05000,0.95000,1.10000,0.90000
   257,'C257        ', 138.0000,1,   1,   3,   1,1.02076,  -3.7373,1.05000,0.95000,1.10000,0.90000
   258,'C258        ', 138.0000,1,   1,   3,   1,1.01577,  -3.3636,1.05000,0.95000,1.10000,0.90000
   259,'C259        ', 138.0000,1,   1,   3,   1,1.01570,  -3.3607,1.05000,0.95000,1.10000,0.90000
   260,'C260        ', 138.0000,1,   1,   3,   1,1.01335,  -3.9333,1.05000,0.95000,1.10000,0.90000
   261,'C261        ', 138.0000,1,   1,   3,   1,1.01534,  -3.6635,1.05000,0.95000,1.10000,0.90000
   262,'C262        ', 138.0000,1,   1,   3,   1,1.00396,   1.1515,1.05000,0.95000,1.10000,0.90000
   263,'C263        ', 138.0000,1,   1,   3,   1,1.00397,  -2.9206,1.05000,0.95000,1.10000,0.90000
   264,'C264        ', 138.0000,1,   1,   3,   1,1.00397,  -2.9202,1.05000,0.95000,1.10000,0.90000
   265,'D265        ', 345.0000,1,   1,   4,   1,1.01220, -25.5719,1.05000,0.95000,1.10000,0.90000
   266,'D266        ', 138.0000,1,   1,   4,   1,1.01641, -11.1579,1.05000,0.95000,1.10000,0.90000
   267,'D267        ',  69.0000,2,   1,   4,   1,1.01000,  -6.5517,1.05000,0.95000,1.10000,0.90000
   268,'D268        ', 765.0000,2,   1,   4,   1,1.01800, -24.5372,1.05000,0.95000,1.10000,0.90000
   269,'D269        ', 138.0000,1,   1,   4,   1,1.01526,  -8.9970,1.05000,0.95000,1.10000,0.90000
   270,'D270        ',  46.0000,1,   1,   4,   1,1.01613, -13.3437,1.05000,0.95000,1.10000,0.90000
   271,'D271        ',  69.0000,1,   1,   4,   1,1.01781, -12.7043,1.05000,0.95000,1.10000,0.90000
   272,'D272        ', 138.0000,2,   1,   4,   1,1.01940, -13.4498,1.05000,0.95000,1.10000,0.90000
   273,'D273        ',  46.0000,1,   1,   4,   1,1.01315, -12.0276,1.05000,0.95000,1.10000,0.90000
   274,'D274        ',  46.0000,1,   1,   4,   1,1.01845, -12.9342,1.05000,0.95000,1.10000,0.90000
   275,'D275        ', 138.0000,2,   1,   4,   1,1.01850, -11.0171,1.05000,0.95000,1.10000,0.90000
   276,'D276        ',  69.0000,1,   1,   4,   1,1.00910, -11.6277,1.05000,0.95000,1.10000,0.90000
   277,'D277        ', 345.0000,1,   1,   4,   1,1.01219, -25.5719,1.05000,0.95000,1.10000,0.90000
   278,'D278        ',  69.0000,1,   1,   4,   1,1.00838, -10.8771,1.05000,0.95000,1.10000,0.90000
   279,'D279        ',  69.0000,1,   1,   4,   1,1.01111, -11.6616,1.05000,0.95000,1.10000,0.90000
   280,'D280        ', 138.0000,1,   1,   4,   1,1.00268, -29.4112,1.05000,0.95000,1.10000,0.90000
   281,'D281        ',  46.0000,2,   1,   4,   1,1.01020, -10.4925,1.05000,0.95000,1.10000,0.90000
   282,'D282        ',  69.0000,1,   1,   4,   1,1.00339, -10.0615,1.05000,0.95000,1.10000,0.90000
   283,'D283        ', 138.0000,1,   1,   4,   1,0.99915, -26.2898,1.05000,0.95000,1.10000,0.90000
   284,'D284        ',  69.0000,1,   1,   4,   1,1.01267, -11.7080,1.05000,0.95000,1.10000,0.90000
   285,'D285        ',  46.0000,1,   1,   4,   1,1.02053, -12.8970,1.05000,0.95000,1.10000,0.90000
   286,'D286        ',  69.0000,1,   1,   4,   1,0.99688, -21.0592,1.05000,0.95000,1.10000,0.90000
   287,'D287        ',  46.0000,1,   1,   4,   1,1.01069, -10.7509,1.05000,0.95000,1.10000,0.90000
   288,'D288        ',  69.0000,1,   1,   4,   1,1.02811, -27.4415,1.05000,0.95000,1.10000,0.90000
   289,'D289        ',  69.0000,1,   1,   4,   1,1.00041, -11.2069,1.05000,0.95000,1.10000,0.90000
   290,'D290        ',  46.0000,1,   1,   4,   1,1.01374, -13.4185,1.05000,0.95000,1.10000,0.90000
   291,'D291        ', 138.0000,1,   1,   4,   1,1.00759,  -3.2210,1.05000,0.95000,1.10000,0.90000
   292,'D292        ', 138.0000,1,   1,   4,   1,1.01147, -11.4233,1.05000,0.95000,1.10000,0.90000
   293,'D293        ',  18.0000,2,   1,   4,   1,1.01220, -25.5719,1.05000,0.95000,1.10000,0.90000
   294,'D294        ', 138.0000,1,   1,   4,   1,1.00796, -10.7489,1.05000,0.95000,1.10000,0.90000
   295,'D295        ', 138.0000,1,   1,   4,   1,1.01218, -11.4587,1.05000,0.95000,1.10000,0.90000
   296,'D296        ',  18.0000,2,   1,   4,   1,1.01220, -25.5719,1.05000,0.95000,1.10000,0.90000
   297,'D297        ',   1.0000,1,   1,   4,   1,1.00925,  -9.6309,1.05000,0.95000,1.10000,0.90000
   298,'D298        ',  46.0000,2,   1,   4,   1,1.02780, -13.4978,1.05000,0.95000,1.10000,0.90000
   299,'D299        ',  46.0000,1,   1,   4,   1,1.02018, -12.6667,1.05000,0.95000,1.10000,0.90000
   300,'D300        ', 138.0000,1,   1,   4,   1,1.01692,  -8.6460,1.05000,0.95000,1.10000,0.90000
   301,'D301        ',  46.0000,1,   1,   4,   1,1.01576,  -9.3431,1.05000,0.95000,1.10000,0.90000
   302,'D302        ',  46.0000,1,   1,   4,   1,1.01324, -13.2366,1.05000,0.95000,1.10000,0.90000
   303,'D303        ',  69.0000,1,   1,   4,   1,1.00875, -29.4696,1.05000,0.95000,1.10000,0.90000