0,   100.00, 33, 0, 1, 60.00     / PSS(R)E-33.7    TUE, SEP 11 2018  22:00
 GO Competition Network Model 07
 GO Competition Network Model 07
     1,'A1          ', 345.0000,1,   1,   1,   1,1.00399, -17.4379,1.05000,0.95000,1.10000,0.90000
     2,'A2          ', 345.0000,1,   1,   1,   1,1.00401, -17.4462,1.05000,0.95000,1.10000,0.90000
     3,'A3          ', 345.0000,1,   1,   1,   1,1.00119, -18.5948,1.05000,0.95000,1.10000,0.90000
     4,'A4          ', 345.0000,1,   1,   1,   1,1.00121, -18.5995,1.05000,0.95000,1.10000,0.90000
     5,'A5          ', 345.0000,1,   1,   1,   1,1.00132, -17.4002,1.05000,0.95000,1.10000,0.90000
     6,'A6          ', 345.0000,1,   1,   1,   1,1.00134, -17.4097,1.05000,0.95000,1.10000,0.90000
     7,'A7          ', 345.0000,1,   1,   1,   1,0.99885, -17.5882,1.05000,0.95000,1.10000,0.90000
     8,'A8          ', 345.0000,1,   1,   1,   1,0.99888, -17.5932,1.05000,0.95000,1.10000,0.90000
     9,'A9          ', 345.0000,2,   1,   1,   1,1.00363, -15.7107,1.05000,0.95000,1.10000,0.90000
    10,'A10         ', 345.0000,2,   1,   1,   1,1.00358, -15.6660,1.05000,0.95000,1.10000,0.90000
    11,'A11         ', 138.0000,2,   1,   1,   1,1.00443, -17.7717,1.05000,0.95000,1.10000,0.90000
    12,'A12         ', 138.0000,2,   1,   1,   1,1.00074, -17.7517,1.05000,0.95000,1.10000,0.90000
    13,'A13         ', 138.0000,1,   1,   1,   1,1.00404, -17.5278,1.05000,0.95000,1.10000,0.90000
    14,'A14         ', 138.0000,1,   1,   1,   1,1.00095, -17.6725,1.05000,0.95000,1.10000,0.90000
    15,'A15         ', 138.0000,1,   1,   1,   1,1.00264, -17.8577,1.05000,0.95000,1.10000,0.90000
    16,'A16         ', 138.0000,1,   1,   1,   1,1.00265, -17.8574,1.05000,0.95000,1.10000,0.90000
    17,'A17         ', 138.0000,1,   1,   1,   1,1.00592, -17.8526,1.05000,0.95000,1.10000,0.90000
    18,'A18         ', 138.0000,1,   1,   1,   1,1.00563, -16.3665,1.05000,0.95000,1.10000,0.90000
    19,'A19         ', 138.0000,1,   1,   1,   1,1.00558, -16.3460,1.05000,0.95000,1.10000,0.90000
    20,'A20         ', 138.0000,2,   1,   1,   1,1.00678, -17.7941,1.05000,0.95000,1.10000,0.90000
    21,'A21         ', 138.0000,1,   1,   1,   1,0.98292, -20.5463,1.05000,0.95000,1.10000,0.90000
    22,'A22         ', 138.0000,1,   1,   1,   1,0.98303, -20.5416,1.05000,0.95000,1.10000,0.90000
    23,'A23         ', 138.0000,1,   1,   1,   1,1.00209, -19.6573,1.05000,0.95000,1.10000,0.90000
    24,'A24         ', 138.0000,2,   1,   1,   1,1.00540, -19.4539,1.05000,0.95000,1.10000,0.90000
    25,'A25         ', 138.0000,2,   1,   1,   1,1.00282, -17.7791,1.05000,0.95000,1.10000,0.90000
    26,'A26         ', 138.0000,2,   1,   1,   1,1.00289, -17.7832,1.05000,0.95000,1.10000,0.90000
    27,'A27         ', 138.0000,1,   1,   1,   1,1.00403, -17.7871,1.05000,0.95000,1.10000,0.90000
    28,'A28         ', 138.0000,1,   1,   1,   1,1.00430, -17.7734,1.05000,0.95000,1.10000,0.90000
    29,'A29         ', 138.0000,1,   1,   1,   1,1.00521, -17.1556,1.05000,0.95000,1.10000,0.90000
    30,'A30         ', 138.0000,1,   1,   1,   1,1.00524, -17.1543,1.05000,0.95000,1.10000,0.90000
    31,'A31         ', 138.0000,1,   1,   1,   1,0.98295, -21.6081,1.05000,0.95000,1.10000,0.90000
    32,'A32         ', 138.0000,2,   1,   1,   1,0.98292, -21.6432,1.05000,0.95000,1.10000,0.90000
    33,'A33         ', 138.0000,1,   1,   1,   1,1.00529, -15.8028,1.05000,0.95000,1.10000,0.90000
    34,'A34         ', 138.0000,1,   1,   1,   1,1.00554, -15.7911,1.05000,0.95000,1.10000,0.90000
    35,'A35         ', 138.0000,1,   1,   1,   1,1.00293, -17.7872,1.05000,0.95000,1.10000,0.90000
    36,'A36         ', 138.0000,1,   1,   1,   1,1.00379, -17.5738,1.05000,0.95000,1.10000,0.90000
    37,'A37         ', 138.0000,1,   1,   1,   1,1.00294, -17.7866,1.05000,0.95000,1.10000,0.90000
    38,'A38         ', 138.0000,1,   1,   1,   1,1.00379, -17.5738,1.05000,0.95000,1.10000,0.90000
    39,'A39         ', 138.0000,1,   1,   1,   1,0.99584, -24.9860,1.05000,0.95000,1.10000,0.90000
    40,'A40         ', 138.0000,1,   1,   1,   1,1.00391, -17.6596,1.05000,0.95000,1.10000,0.90000
    41,'A41         ', 138.0000,1,   1,   1,   1,1.00391, -17.6620,1.05000,0.95000,1.10000,0.90000
    42,'A42         ', 138.0000,1,   1,   1,   1,1.00731, -16.8901,1.05000,0.95000,1.10000,0.90000
    43,'A43         ', 138.0000,1,   1,   1,   1,1.00734, -16.8879,1.05000,0.95000,1.10000,0.90000
    44,'A44         ', 138.0000,1,   1,   1,   1,0.98109, -20.5199,1.05000,0.95000,1.10000,0.90000
    45,'A45         ', 138.0000,1,   1,   1,   1,0.98105, -20.5291,1.05000,0.95000,1.10000,0.90000
    46,'A46         ', 138.0000,2,   1,   1,   1,0.99752, -20.1712,1.05000,0.95000,1.10000,0.90000
    47,'A47         ', 138.0000,1,   1,   1,   1,0.98951, -19.8595,1.05000,0.95000,1.10000,0.90000
    48,'A48         ', 138.0000,1,   1,   1,   1,0.98937, -19.8622,1.05000,0.95000,1.10000,0.90000
    49,'A49         ', 138.0000,1,   1,   1,   1,0.99519, -26.1312,1.05000,0.95000,1.10000,0.90000
    50,'A50         ', 138.0000,1,   1,   1,   1,0.99999, -21.3593,1.05000,0.95000,1.10000,0.90000
    51,'A51         ', 138.0000,1,   1,   1,   1,0.99999, -21.3593,1.05000,0.95000,1.10000,0.90000
    52,'A52         ', 138.0000,1,   1,   1,   1,0.98393, -20.4529,1.05000,0.95000,1.10000,0.90000
    53,'A53         ', 138.0000,2,   1,   1,   1,0.99754, -19.7562,1.05000,0.95000,1.10000,0.90000
    54,'A54         ', 138.0000,1,   1,   1,   1,1.00315, -17.5183,1.05000,0.95000,1.10000,0.90000
    55,'A55         ', 138.0000,1,   1,   1,   1,1.00322, -17.5392,1.05000,0.95000,1.10000,0.90000
    56,'A56         ', 138.0000,1,   1,   1,   1,1.00004, -21.4843,1.05000,0.95000,1.10000,0.90000
    57,'A57         ', 138.0000,1,   1,   1,   1,0.99977, -21.4362,1.05000,0.95000,1.10000,0.90000
    58,'A58         ', 138.0000,1,   1,   1,   1,1.00235, -17.9253,1.05000,0.95000,1.10000,0.90000
    59,'A59         ', 138.0000,1,   1,   1,   1,1.00567, -17.4407,1.05000,0.95000,1.10000,0.90000
    60,'A60         ', 138.0000,1,   1,   1,   1,0.98530, -19.8818,1.05000,0.95000,1.10000,0.90000
    61,'A61         ', 138.0000,1,   1,   1,   1,0.98532, -19.8799,1.05000,0.95000,1.10000,0.90000
    62,'A62         ', 138.0000,1,   1,   1,   1,1.00565, -16.3657,1.05000,0.95000,1.10000,0.90000
    63,'A63         ', 138.0000,1,   1,   1,   1,1.00559, -16.3456,1.05000,0.95000,1.10000,0.90000
    64,'A64         ', 138.0000,1,   1,   1,   1,1.00314, -17.7363,1.05000,0.95000,1.10000,0.90000
    65,'A65         ', 138.0000,1,   1,   1,   1,1.00523, -17.1496,1.05000,0.95000,1.10000,0.90000
    66,'A66         ', 138.0000,1,   1,   1,   1,0.99768, -22.1844,1.05000,0.95000,1.10000,0.90000
    67,'A67         ', 138.0000,2,   1,   1,   1,0.99768, -22.1948,1.05000,0.95000,1.10000,0.90000
    68,'A68         ', 138.0000,2,   1,   1,   1,1.00858, -14.7755,1.05000,0.95000,1.10000,0.90000
    69,'A69         ', 138.0000,1,   1,   1,   1,0.99224, -19.8066,1.05000,0.95000,1.10000,0.90000
    70,'A70         ', 138.0000,1,   1,   1,   1,0.97760, -20.8493,1.05000,0.95000,1.10000,0.90000
    71,'B71         ', 345.0000,1,   2,   2,   1,0.99057, -15.1775,1.05000,0.95000,1.10000,0.90000
    72,'B72         ', 345.0000,1,   2,   2,   1,0.99057, -15.1775,1.05000,0.95000,1.10000,0.90000
    73,'B73         ', 345.0000,1,   2,   2,   1,1.00085, -12.7786,1.05000,0.95000,1.10000,0.90000
    74,'B74         ', 345.0000,1,   2,   2,   1,1.00085, -12.7786,1.05000,0.95000,1.10000,0.90000
    75,'B75         ', 345.0000,2,   2,   2,   1,1.00773, -15.0022,1.05000,0.95000,1.10000,0.90000
    76,'B76         ', 345.0000,2,   2,   2,   1,1.00788, -15.0011,1.05000,0.95000,1.10000,0.90000
    77,'B77         ', 500.0000,2,   2,   2,   1,1.00260, -17.3616,1.05000,0.95000,1.10000,0.90000
    78,'B78         ', 345.0000,2,   2,   2,   1,0.99160, -14.2410,1.05000,0.95000,1.10000,0.90000
    79,'B79         ', 345.0000,1,   2,   2,   1,0.99029, -14.3003,1.05000,0.95000,1.10000,0.90000
    80,'B80         ', 345.0000,1,   2,   2,   1,0.99029, -14.3003,1.05000,0.95000,1.10000,0.90000
    81,'B81         ', 345.0000,1,   2,   2,   1,0.99032, -15.1178,1.05000,0.95000,1.10000,0.90000
    82,'B82         ', 345.0000,1,   2,   2,   1,0.99032, -15.1154,1.05000,0.95000,1.10000,0.90000
    83,'B83         ', 138.0000,1,   2,   2,   1,0.96938, -16.0542,1.05000,0.95000,1.10000,0.90000
    84,'B84         ', 138.0000,1,   2,   2,   1,0.97934, -14.4228,1.05000,0.95000,1.10000,0.90000
    85,'B85         ', 138.0000,1,   2,   2,   1,1.00524, -13.8536,1.05000,0.95000,1.10000,0.90000
    86,'B86         ', 138.0000,1,   2,   2,   1,1.00025, -17.2086,1.05000,0.95000,1.10000,0.90000
    87,'B87         ', 138.0000,1,   2,   2,   1,0.97276, -11.0311,1.05000,0.95000,1.10000,0.90000
    88,'B88         ', 138.0000,1,   2,   2,   1,0.98634, -10.2228,1.05000,0.95000,1.10000,0.90000
    89,'B89         ', 138.0000,1,   2,   2,   1,0.97919, -15.7730,1.05000,0.95000,1.10000,0.90000
    90,'B90         ', 138.0000,2,   2,   2,   1,0.97902, -17.0115,1.05000,0.95000,1.10000,0.90000
    91,'B91         ', 138.0000,1,   2,   2,   1,0.99085,  -8.0071,1.05000,0.95000,1.10000,0.90000
    92,'B92         ', 138.0000,2,   2,   2,   1,1.00542, -13.8355,1.05000,0.95000,1.10000,0.90000
    93,'B93         ', 138.0000,1,   2,   2,   1,1.00542, -13.8355,1.05000,0.95000,1.10000,0.90000
    94,'B94         ', 138.0000,1,   2,   2,   1,0.96515, -15.5260,1.05000,0.95000,1.10000,0.90000
    95,'B95         ', 138.0000,2,   2,   2,   1,0.95416, -19.8615,1.05000,0.95000,1.10000,0.90000
    96,'B96         ', 138.0000,2,   2,   2,   1,0.97319, -16.2113,1.05000,0.95000,1.10000,0.90000
    97,'B97         ', 138.0000,1,   2,   2,   1,0.97299, -16.2214,1.05000,0.95000,1.10000,0.90000
    98,'B98         ', 138.0000,2,   2,   2,   1,1.00358, -11.9343,1.05000,0.95000,1.10000,0.90000
    99,'B99         ', 138.0000,2,   2,   2,   1,1.00788, -10.4957,1.05000,0.95000,1.10000,0.90000
   100,'B100        ', 138.0000,1,   2,   2,   1,0.96433, -16.8690,1.05000,0.95000,1.10000,0.90000
   101,'B101        ', 138.0000,1,   2,   2,   1,0.99902, -14.2992,1.05000,0.95000,1.10000,0.90000
   102,'B102        ', 138.0000,1,   2,   2,   1,0.96697, -16.1984,1.05000,0.95000,1.10000,0.90000
   103,'B103        ', 138.0000,1,   2,   2,   1,1.00292, -12.0349,1.05000,0.95000,1.10000,0.90000
   104,'B104        ', 138.0000,1,   2,   2,   1,0.95568, -18.3280,1.05000,0.95000,1.10000,0.90000
   105,'B105        ', 138.0000,1,   2,   2,   1,1.00616, -13.9252,1.05000,0.95000,1.10000,0.90000
   106,'B106        ', 138.0000,1,   2,   2,   1,0.98433, -15.4093,1.05000,0.95000,1.10000,0.90000
   107,'B107        ', 138.0000,1,   2,   2,   1,0.98041, -13.1275,1.05000,0.95000,1.10000,0.90000
   108,'B108        ', 138.0000,1,   2,   2,   1,0.97174, -16.2003,1.05000,0.95000,1.10000,0.90000
   109,'B109        ', 138.0000,1,   2,   2,   1,0.98417, -15.6391,1.05000,0.95000,1.10000,0.90000
   110,'B110        ', 138.0000,1,   2,   2,   1,0.97338, -12.9764,1.05000,0.95000,1.10000,0.90000
   111,'B111        ', 138.0000,1,   2,   2,   1,0.96178, -17.2149,1.05000,0.95000,1.10000,0.90000
   112,'B112        ', 138.0000,2,   2,   2,   1,0.98597, -15.4880,1.05000,0.95000,1.10000,0.90000
   113,'B113        ', 138.0000,1,   2,   2,   1,0.97505, -10.7186,1.05000,0.95000,1.10000,0.90000
   114,'B114        ', 138.0000,1,   2,   2,   1,0.97904, -14.5909,1.05000,0.95000,1.10000,0.90000
   115,'B115        ', 138.0000,1,   2,   2,   1,0.98388, -14.0338,1.05000,0.95000,1.10000,0.90000
   116,'B116        ', 138.0000,1,   2,   2,   1,0.95705, -17.6910,1.05000,0.95000,1.10000,0.90000
   117,'B117        ', 138.0000,1,   2,   2,   1,0.95595, -20.7470,1.05000,0.95000,1.10000,0.90000
   118,'B118        ', 138.0000,1,   2,   2,   1,0.96987, -16.2065,1.05000,0.95000,1.10000,0.90000
   119,'B119        ', 138.0000,1,   2,   2,   1,0.97025, -13.9179,1.05000,0.95000,1.10000,0.90000
   120,'B120        ', 138.0000,2,   2,   2,   1,0.98376, -15.4676,1.05000,0.95000,1.10000,0.90000
   121,'B121        ', 138.0000,1,   2,   2,   1,0.98364, -15.4724,1.05000,0.95000,1.10000,0.90000
   122,'B122        ', 138.0000,1,   2,   2,   1,0.96569, -16.4326,1.05000,0.95000,1.10000,0.90000
   123,'B123        ', 138.0000,1,   2,   2,   1,0.97496, -16.0744,1.05000,0.95000,1.10000,0.90000
   124,'B124        ', 138.0000,2,   2,   2,   1,0.96916, -15.9864,1.05000,0.95000,1.10000,0.90000
   125,'B125        ', 138.0000,2,   2,   2,   1,0.96898, -15.9784,1.05000,0.95000,1.10000,0.90000
   126,'B126        ', 138.0000,1,   2,   2,   1,0.97967, -15.1420,1.05000,0.95000,1.10000,0.90000
   127,'B127        ', 138.0000,2,   2,   2,   1,0.96042, -17.3624,1.05000,0.95000,1.10000,0.90000
   128,'B128        ', 138.0000,2,   2,   2,   1,0.96049, -17.3754,1.05000,0.95000,1.10000,0.90000
   129,'B129        ', 138.0000,1,   2,   2,   1,0.97310, -16.2155,1.05000,0.95000,1.10000,0.90000
   130,'B130        ', 138.0000,1,   2,   2,   1,0.97439, -10.7637,1.05000,0.95000,1.10000,0.90000
   131,'B131        ', 138.0000,1,   2,   2,   1,0.98531, -15.5331,1.05000,0.95000,1.10000,0.90000
   132,'B132        ', 138.0000,1,   2,   2,   1,0.95718, -17.7453,1.05000,0.95000,1.10000,0.90000
   133,'B133        ', 138.0000,1,   2,   2,   1,0.95565, -17.8090,1.05000,0.95000,1.10000,0.90000
   134,'B134        ', 138.0000,1,   2,   2,   1,0.95620, -17.7649,1.05000,0.95000,1.10000,0.90000
   135,'B135        ', 138.0000,2,   2,   2,   1,1.00718,  -3.7467,1.05000,0.95000,1.10000,0.90000
   136,'B136        ', 138.0000,2,   2,   2,   1,0.97176, -15.9604,1.05000,0.95000,1.10000,0.90000
   137,'B137        ', 138.0000,1,   2,   2,   1,0.97257, -16.2524,1.05000,0.95000,1.10000,0.90000
   138,'B138        ', 138.0000,2,   2,   2,   1,0.95536, -20.3829,1.05000,0.95000,1.10000,0.90000
   139,'B139        ', 138.0000,1,   2,   2,   1,0.96895, -16.1709,1.05000,0.95000,1.10000,0.90000
   140,'B140        ', 138.0000,1,   2,   2,   1,1.00298, -15.1054,1.05000,0.95000,1.10000,0.90000
   141,'B141        ', 138.0000,1,   2,   2,   1,0.97191, -11.1369,1.05000,0.95000,1.10000,0.90000
   142,'B142        ', 138.0000,1,   2,   2,   1,0.95773, -17.7013,1.05000,0.95000,1.10000,0.90000
   143,'B143        ', 138.0000,1,   2,   2,   1,0.98461, -13.8958,1.05000,0.95000,1.10000,0.90000
   144,'B144        ', 138.0000,1,   2,   2,   1,0.97721, -15.8308,1.05000,0.95000,1.10000,0.90000
   145,'B145        ', 138.0000,1,   2,   2,   1,0.98510, -15.4453,1.05000,0.95000,1.10000,0.90000
   146,'B146        ', 138.0000,1,   2,   2,   1,0.97135, -16.3430,1.05000,0.95000,1.10000,0.90000
   147,'B147        ', 138.0000,1,   2,   2,   1,0.97707, -15.8398,1.05000,0.95000,1.10000,0.90000
   148,'B148        ', 138.0000,1,   2,   2,   1,0.96633, -16.4633,1.05000,0.95000,1.10000,0.90000
   149,'B149        ', 138.0000,1,   2,   2,   1,0.96950, -14.7873,1.05000,0.95000,1.10000,0.90000
   150,'B150        ', 345.0000,2,   2,   2,   1,1.00794, -15.7732,1.05000,0.95000,1.10000,0.90000
   151,'C151        ', 345.0000,1,   3,   3,   1,0.99260, -13.3580,1.05000,0.95000,1.10000,0.90000
   152,'C152        ', 500.0000,1,   3,   3,   1,0.99967, -12.4789,1.05000,0.95000,1.10000,0.90000
   153,'C153        ', 500.0000,2,   3,   3,   1,0.99965, -12.4742,1.05000,0.95000,1.10000,0.90000
   154,'C154        ', 500.0000,1,   3,   3,   1,0.99488, -16.0662,1.05000,0.95000,1.10000,0.90000
   155,'C155        ', 500.0000,1,   3,   3,   1,0.99493, -16.0337,1.05000,0.95000,1.10000,0.90000
   156,'C156        ', 500.0000,1,   3,   3,   1,1.00560, -21.4007,1.05000,0.95000,1.10000,0.90000
   157,'C157        ', 345.0000,2,   3,   3,   1,0.98836, -20.6648,1.05000,0.95000,1.10000,0.90000
   158,'C158        ', 500.0000,2,   3,   3,   1,0.96175, -20.9282,1.05000,0.95000,1.10000,0.90000
   159,'C159        ', 500.0000,1,   3,   3,   1,0.96175, -20.9282,1.05000,0.95000,1.10000,0.90000
   160,'C160        ', 500.0000,1,   3,   3,   1,0.98478, -14.7964,1.05000,0.95000,1.10000,0.90000
   161,'C161        ', 500.0000,2,   3,   3,   1,0.98452, -14.7892,1.05000,0.95000,1.10000,0.90000
   162,'C162        ', 500.0000,1,   3,   3,   1,0.99793, -13.8394,1.05000,0.95000,1.10000,0.90000
   163,'C163        ', 500.0000,1,   3,   3,   1,1.00758, -12.2910,1.05000,0.95000,1.10000,0.90000
   164,'C164        ', 500.0000,1,   3,   3,   1,1.00750, -12.2945,1.05000,0.95000,1.10000,0.90000
   165,'C165        ', 500.0000,2,   3,   3,   1,1.00429, -13.9583,1.05000,0.95000,1.10000,0.90000
   166,'C166        ', 500.0000,2,   3,   3,   1,1.00445, -13.9675,1.05000,0.95000,1.10000,0.90000
   167,'C167        ', 138.0000,1,   3,   3,   1,1.00248,  -7.6167,1.05000,0.95000,1.10000,0.90000
   168,'C168        ', 138.0000,2,   3,   3,   1,1.00001, -14.8514,1.05000,0.95000,1.10000,0.90000
   169,'C169        ', 138.0000,2,   3,   3,   1,0.99978, -14.8471,1.05000,0.95000,1.10000,0.90000
   170,'C170        ', 138.0000,1,   3,   3,   1,0.99879, -15.3166,1.05000,0.95000,1.10000,0.90000
   171,'C171        ', 138.0000,2,   3,   3,   1,1.00663,  -4.2071,1.05000,0.95000,1.10000,0.90000
   172,'C172        ', 138.0000,1,   3,   3,   1,0.97840, -19.4715,1.05000,0.95000,1.10000,0.90000
   173,'C173        ',  32.0000,1,   3,   3,   1,1.02979, -21.5407,1.05000,0.95000,1.10000,0.90000
   174,'C174        ', 138.0000,1,   3,   3,   1,0.98949, -16.1515,1.05000,0.95000,1.10000,0.90000
   175,'C175        ', 138.0000,1,   3,   3,   1,0.99333, -15.3988,1.05000,0.95000,1.10000,0.90000
   176,'C176        ', 138.0000,1,   3,   3,   1,0.99333, -15.3909,1.05000,0.95000,1.10000,0.90000
   177,'C177        ', 138.0000,2,   3,   3,   1,1.00729, -12.4854,1.05000,0.95000,1.10000,0.90000
   178,'C178        ', 138.0000,2,   3,   3,   1,1.00788, -12.3649,1.05000,0.95000,1.10000,0.90000
   179,'C179        ', 138.0000,1,   3,   3,   1,0.99135, -15.6052,1.05000,0.95000,1.10000,0.90000
   180,'C180        ', 138.0000,1,   3,   3,   1,0.99309, -15.4171,1.05000,0.95000,1.10000,0.90000
   181,'C181        ', 138.0000,1,   3,   3,   1,0.98948, -16.1324,1.05000,0.95000,1.10000,0.90000
   182,'C182        ', 138.0000,1,   3,   3,   1,0.99454, -15.3089,1.05000,0.95000,1.10000,0.90000
   183,'C183        ', 138.0000,2,   3,   3,   1,1.00718,  -3.6337,1.05000,0.95000,1.10000,0.90000
   184,'C184        ', 138.0000,1,   3,   3,   1,1.00694,  -4.1958,1.05000,0.95000,1.10000,0.90000
   185,'C185        ', 138.0000,2,   3,   3,   1,1.00980, -14.4307,1.05000,0.95000,1.10000,0.90000
   186,'C186        ', 138.0000,1,   3,   3,   1,0.99592, -15.1910,1.05000,0.95000,1.10000,0.90000
   187,'C187        ',  16.0000,1,   3,   3,   1,1.02148, -13.9540,1.05000,0.95000,1.10000,0.90000
   188,'C188        ', 138.0000,2,   3,   3,   1,1.00788, -11.0173,1.05000,0.95000,1.10000,0.90000
   189,'C189        ', 138.0000,1,   3,   3,   1,0.99301,  -8.0570,1.05000,0.95000,1.10000,0.90000
   190,'C190        ', 138.0000,1,   3,   3,   1,0.97847, -19.4727,1.05000,0.95000,1.10000,0.90000
   191,'C191        ', 138.0000,1,   3,   3,   1,0.99060, -15.7117,1.05000,0.95000,1.10000,0.90000
   192,'C192        ', 138.0000,1,   3,   3,   1,0.99833, -13.9495,1.05000,0.95000,1.10000,0.90000
   193,'C193        ', 138.0000,1,   3,   3,   1,0.99900, -14.5617,1.05000,0.95000,1.10000,0.90000
   194,'C194        ', 138.0000,2,   3,   3,   1,0.98917, -16.1762,1.05000,0.95000,1.10000,0.90000
   195,'C195        ', 138.0000,2,   3,   3,   1,1.00788,  -4.9654,1.05000,0.95000,1.10000,0.90000
   196,'C196        ', 138.0000,1,   3,   3,   1,0.99159,  -8.2499,1.05000,0.95000,1.10000,0.90000
   197,'C197        ', 138.0000,1,   3,   3,   1,0.99264,  -8.0900,1.05000,0.95000,1.10000,0.90000
   198,'C198        ', 138.0000,1,   3,   3,   1,1.00683,  -4.6817,1.05000,0.95000,1.10000,0.90000
   199,'C199        ', 138.0000,1,   3,   3,   1,0.99686,  -7.6079,1.05000,0.95000,1.10000,0.90000
   200,'C200        ', 138.0000,1,   3,   3,   1,0.99682,  -7.5039,1.05000,0.95000,1.10000,0.90000
   201,'C201        ', 138.0000,2,   3,   3,   1,1.00788,  -4.8179,1.05000,0.95000,1.10000,0.90000
   202,'C202        ', 138.0000,1,   3,   3,   1,1.00790,  -4.8524,1.05000,0.95000,1.10000,0.90000
   203,'C203        ', 138.0000,1,   3,   3,   1,1.00761,  -4.8901,1.05000,0.95000,1.10000,0.90000
   204,'C204        ', 138.0000,1,   3,   3,   1,0.99313, -15.4101,1.05000,0.95000,1.10000,0.90000
   205,'C205        ', 138.0000,1,   3,   3,   1,0.99373, -15.3687,1.05000,0.95000,1.10000,0.90000
   206,'C206        ', 138.0000,1,   3,   3,   1,0.99320,  -7.9528,1.05000,0.95000,1.10000,0.90000
   207,'C207        ', 138.0000,2,   3,   3,   1,1.00560, -12.8311,1.05000,0.95000,1.10000,0.90000
   208,'C208        ', 138.0000,1,   3,   3,   1,0.99914, -13.1498,1.05000,0.95000,1.10000,0.90000
   209,'C209        ', 138.0000,2,   3,   3,   1,0.99839,  -6.7147,1.05000,0.95000,1.10000,0.90000
   210,'C210        ', 138.0000,1,   3,   3,   1,0.99054, -15.8121,1.05000,0.95000,1.10000,0.90000
   211,'C211        ', 138.0000,1,   3,   3,   1,0.98953, -16.1253,1.05000,0.95000,1.10000,0.90000
   212,'C212        ', 138.0000,1,   3,   3,   1,0.99302,  -8.0560,1.05000,0.95000,1.10000,0.90000
   213,'C213        ', 138.0000,1,   3,   3,   1,1.00785,  -4.8430,1.05000,0.95000,1.10000,0.90000
   214,'C214        ', 138.0000,1,   3,   3,   1,1.00462, -11.5334,1.05000,0.95000,1.10000,0.90000
   215,'C215        ', 138.0000,1,   3,   3,   1,1.00483, -11.4979,1.05000,0.95000,1.10000,0.90000
   216,'C216        ', 500.0000,1,   3,   3,   1,0.99771, -15.5388,1.05000,0.95000,1.10000,0.90000
   217,'D217        ', 345.0000,2,   4,   4,   1,0.99870, -17.8501,1.05000,0.95000,1.10000,0.90000
   218,'D218        ', 345.0000,1,   4,   4,   1,0.99851, -17.8502,1.05000,0.95000,1.10000,0.90000
   219,'D219        ', 345.0000,1,   4,   4,   1,1.00490, -19.8586,1.05000,0.95000,1.10000,0.90000
   220,'D220        ', 345.0000,1,   4,   4,   1,1.00486, -19.8754,1.05000,0.95000,1.10000,0.90000
   221,'D221        ', 345.0000,1,   4,   4,   1,1.00718, -20.2240,1.05000,0.95000,1.10000,0.90000
   222,'D222        ', 345.0000,1,   4,   4,   1,0.99747, -23.2037,1.05000,0.95000,1.10000,0.90000
   223,'D223        ', 345.0000,2,   4,   4,   1,1.00775, -19.4432,1.05000,0.95000,1.10000,0.90000
   224,'D224        ', 345.0000,2,   4,   4,   1,1.00788, -19.4374,1.05000,0.95000,1.10000,0.90000
   225,'D225        ', 345.0000,2,   4,   4,   1,1.00788, -19.5108,1.05000,0.95000,1.10000,0.90000
   226,'D226        ', 345.0000,1,   4,   4,   1,1.00340, -21.3546,1.05000,0.95000,1.10000,0.90000
   227,'D227        ', 345.0000,2,   4,   4,   1,0.99876, -17.8506,1.05000,0.95000,1.10000,0.90000
   228,'D228        ', 345.0000,2,   4,   4,   1,0.99858, -17.8507,1.05000,0.95000,1.10000,0.90000
   229,'D229        ', 138.0000,1,   4,   4,   1,1.00744, -17.3538,1.05000,0.95000,1.10000,0.90000
   230,'D230        ', 138.0000,1,   4,   4,   1,1.00805, -17.2115,1.05000,0.95000,1.10000,0.90000
   231,'D231        ', 138.0000,1,   4,   4,   1,1.00747, -17.3516,1.05000,0.95000,1.10000,0.90000
   232,'D232        ', 138.0000,1,   4,   4,   1,1.00805, -17.2115,1.05000,0.95000,1.10000,0.90000
   233,'D233        ', 138.0000,1,   4,   4,   1,1.00665, -17.3631,1.05000,0.95000,1.10000,0.90000
   234,'D234        ', 138.0000,1,   4,   4,   1,1.00712, -17.3197,1.05000,0.95000,1.10000,0.90000
   235,'D235        ', 138.0000,2,   4,   4,   1,1.00400, -19.3582,1.05000,0.95000,1.10000,0.90000
   236,'D236        ', 138.0000,2,   4,   4,   1,1.00751, -17.3047,1.05000,0.95000,1.10000,0.90000
   237,'D237        ', 138.0000,1,   4,   4,   1,1.00805, -18.3062,1.05000,0.95000,1.10000,0.90000
   238,'D238        ', 138.0000,1,   4,   4,   1,1.00242, -20.7779,1.05000,0.95000,1.10000,0.90000
   239,'D239        ', 138.0000,1,   4,   4,   1,1.00805, -18.3062,1.05000,0.95000,1.10000,0.90000
   240,'D240        ', 138.0000,1,   4,   4,   1,1.00317, -20.7166,1.05000,0.95000,1.10000,0.90000
   241,'D241        ', 138.0000,1,   4,   4,   1,1.00351, -20.6951,1.05000,0.95000,1.10000,0.90000
   242,'D242        ', 138.0000,1,   4,   4,   1,1.00758, -17.3356,1.05000,0.95000,1.10000,0.90000
   243,'D243        ', 138.0000,1,   4,   4,   1,1.00759, -17.3350,1.05000,0.95000,1.10000,0.90000
   244,'D244        ', 138.0000,1,   4,   4,   1,1.00113, -17.5726,1.05000,0.95000,1.10000,0.90000
   245,'D245        ', 138.0000,2,   4,   4,   1,1.00139, -17.5588,1.05000,0.95000,1.10000,0.90000
   246,'D246        ', 138.0000,2,   4,   4,   1,1.00858, -18.1725,1.05000,0.95000,1.10000,0.90000
   247,'D247        ', 138.0000,1,   4,   4,   1,1.00758, -17.0024,1.05000,0.95000,1.10000,0.90000
   248,'D248        ', 138.0000,2,   4,   4,   1,1.00760, -17.0012,1.05000,0.95000,1.10000,0.90000
   249,'D249        ', 138.0000,1,   4,   4,   1,1.00749, -18.5753,1.05000,0.95000,1.10000,0.90000
   250,'D250        ', 138.0000,1,   4,   4,   1,1.00769, -18.5651,1.05000,0.95000,1.10000,0.90000
   251,'D251        ', 138.0000,1,   4,   4,   1,1.00839, -18.2132,1.05000,0.95000,1.10000,0.90000
   252,'D252        ', 138.0000,2,   4,   4,   1,1.00376, -20.6706,1.05000,0.95000,1.10000,0.90000
   253,'D253        ', 138.0000,1,   4,   4,   1,1.00419, -21.4653,1.05000,0.95000,1.10000,0.90000
   254,'D254        ', 138.0000,1,   4,   4,   1,0.99657, -22.5016,1.05000,0.95000,1.10000,0.90000
   255,'D255        ', 138.0000,1,   4,   4,   1,1.00640, -20.9688,1.05000,0.95000,1.10000,0.90000
   256,'D256        ', 138.0000,1,   4,   4,   1,1.00821, -18.2069,1.05000,0.95000,1.10000,0.90000
   257,'D257        ', 138.0000,1,   4,   4,   1,1.00432, -19.2968,1.05000,0.95000,1.10000,0.90000
   258,'D258        ', 138.0000,1,   4,   4,   1,1.00435, -19.2941,1.05000,0.95000,1.10000,0.90000
   259,'D259        ', 138.0000,1,   4,   4,   1,1.00459, -20.3728,1.05000,0.95000,1.10000,0.90000
   260,'D260        ', 138.0000,1,   4,   4,   1,1.00459, -20.3283,1.05000,0.95000,1.10000,0.90000
   261,'D261        ', 138.0000,1,   4,   4,   1,1.00838, -18.2295,1.05000,0.95000,1.10000,0.90000
   262,'D262        ', 138.0000,1,   4,   4,   1,1.00841, -18.2274,1.05000,0.95000,1.10000,0.90000
   263,'D263        ', 138.0000,1,   4,   4,   1,1.00672, -18.6273,1.05000,0.95000,1.10000,0.90000
   264,'D264        ', 138.0000,1,   4,   4,   1,1.00678, -18.6226,1.05000,0.95000,1.10000,0.90000
   265,'D265        ', 138.0000,1,   4,   4,   1,1.00461, -19.1973,1.05000,0.95000,1.10000,0.90000
   266,'D266        ', 138.0000,1,   4,   4,   1,1.00602, -18.9305,1.05000,0.95000,1.10000,0.90000
   267,'D267        ', 138.0000,1,   4,   4,   1,1.00620, -18.9166,1.05000,0.95000,1.10000,0.90000
   268,'D268        ', 138.0000,1,   4,   4,   1,1.00281, -21.9493,1.05000,0.95000,1.10000,0.90000
   269,'D269        ', 138.0000,1,   4,   4,   1,1.00480, -19.1852,1.05000,0.95000,1.10000,0.90000
   270,'D270        ', 138.0000,1,   4,   4,   1,1.00528, -19.2254,1.05000,0.95000,1.10000,0.90000
   271,'D271        ', 138.0000,1,   4,   4,   1,1.00531, -19.2441,1.05000,0.95000,1.10000,0.90000
   272,'D272        ', 138.0000,1,   4,   4,   1,1.00324, -20.7178,1.05000,0.95000,1.10000,0.90000
   273,'D273        ', 138.0000,1,   4,   4,   1,1.00324, -20.7178,1.05000,0.95000,1.10000,0.90000
   274,'D274        ', 345.0000,2,   4,   4,   1,0.98481, -24.2969,1.05000,0.95000,1.10000,0.90000
   275,'E275        ', 345.0000,1,   5,   5,   1,1.01246, -28.9788,1.05000,0.95000,1.10000,0.90000
   276,'E276        ', 500.0000,1,   5,   5,   1,1.01267, -29.7573,1.05000,0.95000,1.10000,0.90000
   277,'E277        ', 500.0000,2,   5,   5,   1,1.01269, -29.7548,1.05000,0.95000,1.10000,0.90000
   278,'E278        ', 500.0000,1,   5,   5,   1,1.00206, -32.3054,1.05000,0.95000,1.10000,0.90000
   279,'E279        ', 500.0000,1,   5,   5,   1,1.00193, -32.3143,1.05000,0.95000,1.10000,0.90000
   280,'E280        ', 500.0000,1,   5,   5,   1,0.98696, -36.0183,1.05000,0.95000,1.10000,0.90000
   281,'E281        ', 345.0000,2,   5,   5,   1,0.99359, -21.6015,1.05000,0.95000,1.10000,0.90000
   282,'E282        ', 500.0000,2,   5,   5,   1,1.01000, -33.1108,1.05000,0.95000,1.10000,0.90000
   284,'E284        ', 500.0000,1,   5,   5,   1,0.98491, -34.8430,1.05000,0.95000,1.10000,0.90000
   285,'E285        ', 500.0000,2,   5,   5,   1,0.98471, -34.8579,1.05000,0.95000,1.10000,0.90000
   286,'E286        ', 500.0000,1,   5,   5,   1,0.98195, -36.8374,1.05000,0.95000,1.10000,0.90000
   287,'E287        ', 500.0000,1,   5,   5,   1,1.01386, -30.3561,1.05000,0.95000,1.10000,0.90000
   288,'E288        ', 500.0000,1,   5,   5,   1,1.01389, -30.3465,1.05000,0.95000,1.10000,0.90000
   289,'E289        ', 500.0000,2,   5,   5,   1,1.00224, -30.4550,1.05000,0.95000,1.10000,0.90000
   290,'E290        ', 500.0000,2,   5,   5,   1,1.00229, -30.4861,1.05000,0.95000,1.10000,0.90000
   291,'E291        ', 138.0000,1,   5,   5,   1,0.98959, -28.3919,1.05000,0.95000,1.10000,0.90000
   292,'E292        ', 138.0000,2,   5,   5,   1,1.00374, -21.7980,1.05000,0.95000,1.10000,0.90000
   293,'E293        ', 138.0000,2,   5,   5,   1,1.00362, -21.8327,1.05000,0.95000,1.10000,0.90000
   294,'E294        ', 138.0000,1,   5,   5,   1,1.00662, -17.0671,1.05000,0.95000,1.10000,0.90000
   295,'E295        ', 138.0000,2,   5,   5,   1,0.99309, -30.4832,1.05000,0.95000,1.10000,0.90000
   296,'E296        ', 138.0000,1,   5,   5,   1,0.98900, -36.2933,1.05000,0.95000,1.10000,0.90000
   297,'E297        ',  32.0000,2,   5,   5,   1,1.00000, -35.6097,1.05000,0.95000,1.10000,0.90000
   298,'E298        ', 138.0000,1,   5,   5,   1,1.00441, -18.0000,1.05000,0.95000,1.10000,0.90000
   299,'E299        ', 138.0000,1,   5,   5,   1,1.00111, -21.3193,1.05000,0.95000,1.10000,0.90000