0,   100.00, 33, 0, 1, 60.00     / PSS(R)E-33.7    TUE, SEP 11 2018  19:18
 GO Competition Network Model 07
 GO Competition Network Model 07
     1,'A1          ', 345.0000,1,   1,   1,   1,1.00396, -16.6306,1.05000,0.95000,1.10000,0.90000
     2,'A2          ', 345.0000,1,   1,   1,   1,1.00398, -16.6394,1.05000,0.95000,1.10000,0.90000
     3,'A3          ', 345.0000,1,   1,   1,   1,1.00116, -17.7242,1.05000,0.95000,1.10000,0.90000
     4,'A4          ', 345.0000,1,   1,   1,   1,1.00118, -17.7291,1.05000,0.95000,1.10000,0.90000
     5,'A5          ', 345.0000,1,   1,   1,   1,1.00096, -16.9900,1.05000,0.95000,1.10000,0.90000
     6,'A6          ', 345.0000,1,   1,   1,   1,1.00098, -17.0034,1.05000,0.95000,1.10000,0.90000
     7,'A7          ', 345.0000,1,   1,   1,   1,0.99886, -16.6663,1.05000,0.95000,1.10000,0.90000
     8,'A8          ', 345.0000,1,   1,   1,   1,0.99889, -16.6715,1.05000,0.95000,1.10000,0.90000
     9,'A9          ', 345.0000,2,   1,   1,   1,1.00363, -14.7612,1.05000,0.95000,1.10000,0.90000
    10,'A10         ', 345.0000,2,   1,   1,   1,1.00358, -14.7140,1.05000,0.95000,1.10000,0.90000
    11,'A11         ', 138.0000,2,   1,   1,   1,1.00450, -17.0923,1.05000,0.95000,1.10000,0.90000
    12,'A12         ', 138.0000,2,   1,   1,   1,1.00109, -17.2783,1.05000,0.95000,1.10000,0.90000
    13,'A13         ', 138.0000,1,   1,   1,   1,1.00427, -16.6878,1.05000,0.95000,1.10000,0.90000
    14,'A14         ', 138.0000,1,   1,   1,   1,1.00112, -17.4452,1.05000,0.95000,1.10000,0.90000
    15,'A15         ', 138.0000,1,   1,   1,   1,1.00286, -16.9675,1.05000,0.95000,1.10000,0.90000
    16,'A16         ', 138.0000,1,   1,   1,   1,1.00286, -16.9673,1.05000,0.95000,1.10000,0.90000
    17,'A17         ', 138.0000,1,   1,   1,   1,1.00603, -16.9899,1.05000,0.95000,1.10000,0.90000
    18,'A18         ', 138.0000,1,   1,   1,   1,1.00570, -15.5048,1.05000,0.95000,1.10000,0.90000
    19,'A19         ', 138.0000,1,   1,   1,   1,1.00564, -15.4836,1.05000,0.95000,1.10000,0.90000
    20,'A20         ', 138.0000,2,   1,   1,   1,1.00688, -16.9325,1.05000,0.95000,1.10000,0.90000
    21,'A21         ', 138.0000,1,   1,   1,   1,0.98258, -19.4048,1.05000,0.95000,1.10000,0.90000
    22,'A22         ', 138.0000,1,   1,   1,   1,0.98271, -19.4018,1.05000,0.95000,1.10000,0.90000
    23,'A23         ', 138.0000,1,   1,   1,   1,1.00222, -18.9434,1.05000,0.95000,1.10000,0.90000
    24,'A24         ', 138.0000,2,   1,   1,   1,1.00540, -18.5972,1.05000,0.95000,1.10000,0.90000
    25,'A25         ', 138.0000,2,   1,   1,   1,1.00279, -17.1711,1.05000,0.95000,1.10000,0.90000
    26,'A26         ', 138.0000,2,   1,   1,   1,1.00284, -17.1720,1.05000,0.95000,1.10000,0.90000
    27,'A27         ', 138.0000,1,   1,   1,   1,1.00420, -16.9141,1.05000,0.95000,1.10000,0.90000
    28,'A28         ', 138.0000,1,   1,   1,   1,1.00446, -16.9006,1.05000,0.95000,1.10000,0.90000
    29,'A29         ', 138.0000,1,   1,   1,   1,1.00531, -16.3238,1.05000,0.95000,1.10000,0.90000
    30,'A30         ', 138.0000,1,   1,   1,   1,1.00533, -16.3226,1.05000,0.95000,1.10000,0.90000
    31,'A31         ', 138.0000,1,   1,   1,   1,0.98332, -20.5680,1.05000,0.95000,1.10000,0.90000
    32,'A32         ', 138.0000,2,   1,   1,   1,0.98329, -20.6029,1.05000,0.95000,1.10000,0.90000
    33,'A33         ', 138.0000,1,   1,   1,   1,1.00537, -14.8998,1.05000,0.95000,1.10000,0.90000
    34,'A34         ', 138.0000,1,   1,   1,   1,1.00562, -14.8882,1.05000,0.95000,1.10000,0.90000
    35,'A35         ', 138.0000,1,   1,   1,   1,1.00297, -17.0870,1.05000,0.95000,1.10000,0.90000
    36,'A36         ', 138.0000,1,   1,   1,   1,1.00380, -16.8914,1.05000,0.95000,1.10000,0.90000
    37,'A37         ', 138.0000,1,   1,   1,   1,1.00297, -17.0865,1.05000,0.95000,1.10000,0.90000
    38,'A38         ', 138.0000,1,   1,   1,   1,1.00380, -16.8914,1.05000,0.95000,1.10000,0.90000
    39,'A39         ', 138.0000,1,   1,   1,   1,0.99562, -24.3321,1.05000,0.95000,1.10000,0.90000
    40,'A40         ', 138.0000,1,   1,   1,   1,1.00396, -16.9520,1.05000,0.95000,1.10000,0.90000
    41,'A41         ', 138.0000,1,   1,   1,   1,1.00397, -16.9557,1.05000,0.95000,1.10000,0.90000
    42,'A42         ', 138.0000,1,   1,   1,   1,1.00739, -16.1542,1.05000,0.95000,1.10000,0.90000
    43,'A43         ', 138.0000,1,   1,   1,   1,1.00742, -16.1521,1.05000,0.95000,1.10000,0.90000
    44,'A44         ', 138.0000,1,   1,   1,   1,0.98067, -19.3436,1.05000,0.95000,1.10000,0.90000
    45,'A45         ', 138.0000,1,   1,   1,   1,0.98063, -19.3530,1.05000,0.95000,1.10000,0.90000
    46,'A46         ', 138.0000,2,   1,   1,   1,0.99757, -19.2300,1.05000,0.95000,1.10000,0.90000
    47,'A47         ', 138.0000,1,   1,   1,   1,0.98975, -18.8285,1.05000,0.95000,1.10000,0.90000
    48,'A48         ', 138.0000,1,   1,   1,   1,0.98961, -18.8312,1.05000,0.95000,1.10000,0.90000
    49,'A49         ', 138.0000,1,   1,   1,   1,0.99509, -25.3220,1.05000,0.95000,1.10000,0.90000
    50,'A50         ', 138.0000,1,   1,   1,   1,1.00029, -20.5478,1.05000,0.95000,1.10000,0.90000
    51,'A51         ', 138.0000,1,   1,   1,   1,1.00029, -20.5478,1.05000,0.95000,1.10000,0.90000
    52,'A52         ', 138.0000,1,   1,   1,   1,0.98393, -19.3540,1.05000,0.95000,1.10000,0.90000
    53,'A53         ', 138.0000,2,   1,   1,   1,0.99758, -18.8053,1.05000,0.95000,1.10000,0.90000
    54,'A54         ', 138.0000,1,   1,   1,   1,1.00333, -16.6365,1.05000,0.95000,1.10000,0.90000
    55,'A55         ', 138.0000,1,   1,   1,   1,1.00340, -16.6577,1.05000,0.95000,1.10000,0.90000
    56,'A56         ', 138.0000,1,   1,   1,   1,1.00034, -20.6736,1.05000,0.95000,1.10000,0.90000
    57,'A57         ', 138.0000,1,   1,   1,   1,1.00007, -20.6252,1.05000,0.95000,1.10000,0.90000
    58,'A58         ', 138.0000,1,   1,   1,   1,1.00258, -17.0287,1.05000,0.95000,1.10000,0.90000
    59,'A59         ', 138.0000,1,   1,   1,   1,1.00587, -16.6024,1.05000,0.95000,1.10000,0.90000
    60,'A60         ', 138.0000,1,   1,   1,   1,0.98562, -18.8504,1.05000,0.95000,1.10000,0.90000
    61,'A61         ', 138.0000,1,   1,   1,   1,0.98564, -18.8485,1.05000,0.95000,1.10000,0.90000
    62,'A62         ', 138.0000,1,   1,   1,   1,1.00571, -15.5039,1.05000,0.95000,1.10000,0.90000
    63,'A63         ', 138.0000,1,   1,   1,   1,1.00565, -15.4831,1.05000,0.95000,1.10000,0.90000
    64,'A64         ', 138.0000,1,   1,   1,   1,1.00334, -16.8575,1.05000,0.95000,1.10000,0.90000
    65,'A65         ', 138.0000,1,   1,   1,   1,1.00533, -16.3181,1.05000,0.95000,1.10000,0.90000
    66,'A66         ', 138.0000,1,   1,   1,   1,0.99798, -21.3796,1.05000,0.95000,1.10000,0.90000
    67,'A67         ', 138.0000,2,   1,   1,   1,0.99796, -21.3885,1.05000,0.95000,1.10000,0.90000
    68,'A68         ', 138.0000,2,   1,   1,   1,1.00858, -13.8624,1.05000,0.95000,1.10000,0.90000
    69,'A69         ', 138.0000,1,   1,   1,   1,0.99243, -18.7766,1.05000,0.95000,1.10000,0.90000
    70,'A70         ', 138.0000,1,   1,   1,   1,0.97725, -19.6677,1.05000,0.95000,1.10000,0.90000
    71,'B71         ', 345.0000,1,   2,   2,   1,0.99104, -13.6974,1.05000,0.95000,1.10000,0.90000
    72,'B72         ', 345.0000,1,   2,   2,   1,0.99104, -13.6974,1.05000,0.95000,1.10000,0.90000
    73,'B73         ', 345.0000,1,   2,   2,   1,1.00084, -11.5818,1.05000,0.95000,1.10000,0.90000
    74,'B74         ', 345.0000,1,   2,   2,   1,1.00084, -11.5818,1.05000,0.95000,1.10000,0.90000
    75,'B75         ', 345.0000,2,   2,   2,   1,1.00774, -13.5364,1.05000,0.95000,1.10000,0.90000
    76,'B76         ', 345.0000,2,   2,   2,   1,1.00788, -13.5350,1.05000,0.95000,1.10000,0.90000
    77,'B77         ', 500.0000,2,   2,   2,   1,1.00260, -15.9481,1.05000,0.95000,1.10000,0.90000
    78,'B78         ', 345.0000,2,   2,   2,   1,0.99160, -13.2120,1.05000,0.95000,1.10000,0.90000
    79,'B79         ', 345.0000,1,   2,   2,   1,0.99071, -12.8351,1.05000,0.95000,1.10000,0.90000
    80,'B80         ', 345.0000,1,   2,   2,   1,0.99071, -12.8351,1.05000,0.95000,1.10000,0.90000
    81,'B81         ', 345.0000,1,   2,   2,   1,0.99082, -13.6375,1.05000,0.95000,1.10000,0.90000
    82,'B82         ', 345.0000,1,   2,   2,   1,0.99082, -13.6351,1.05000,0.95000,1.10000,0.90000
    83,'B83         ', 138.0000,1,   2,   2,   1,0.97039, -14.5491,1.05000,0.95000,1.10000,0.90000
    84,'B84         ', 138.0000,1,   2,   2,   1,0.98019, -13.1363,1.05000,0.95000,1.10000,0.90000
    85,'B85         ', 138.0000,1,   2,   2,   1,1.00525, -12.4012,1.05000,0.95000,1.10000,0.90000
    86,'B86         ', 138.0000,1,   2,   2,   1,1.00020, -15.8689,1.05000,0.95000,1.10000,0.90000
    87,'B87         ', 138.0000,1,   2,   2,   1,0.97352,  -9.5835,1.05000,0.95000,1.10000,0.90000
    88,'B88         ', 138.0000,1,   2,   2,   1,0.98573,  -9.0457,1.05000,0.95000,1.10000,0.90000
    89,'B89         ', 138.0000,1,   2,   2,   1,0.98003, -14.2846,1.05000,0.95000,1.10000,0.90000
    90,'B90         ', 138.0000,2,   2,   2,   1,0.97842, -16.0916,1.05000,0.95000,1.10000,0.90000
    91,'B91         ', 138.0000,1,   2,   2,   1,0.99034,  -6.7576,1.05000,0.95000,1.10000,0.90000
    92,'B92         ', 138.0000,2,   2,   2,   1,1.00542, -12.3834,1.05000,0.95000,1.10000,0.90000
    93,'B93         ', 138.0000,1,   2,   2,   1,1.00542, -12.3834,1.05000,0.95000,1.10000,0.90000
    94,'B94         ', 138.0000,1,   2,   2,   1,0.96654, -14.0236,1.05000,0.95000,1.10000,0.90000
    95,'B95         ', 138.0000,2,   2,   2,   1,0.95658, -18.3044,1.05000,0.95000,1.10000,0.90000
    96,'B96         ', 138.0000,2,   2,   2,   1,0.97413, -14.7046,1.05000,0.95000,1.10000,0.90000
    97,'B97         ', 138.0000,1,   2,   2,   1,0.97394, -14.7145,1.05000,0.95000,1.10000,0.90000
    98,'B98         ', 138.0000,2,   2,   2,   1,1.00358, -10.7770,1.05000,0.95000,1.10000,0.90000
    99,'B99         ', 138.0000,2,   2,   2,   1,1.00788,  -9.3451,1.05000,0.95000,1.10000,0.90000
   100,'B100        ', 138.0000,1,   2,   2,   1,0.96565, -15.3579,1.05000,0.95000,1.10000,0.90000
   101,'B101        ', 138.0000,1,   2,   2,   1,0.99922, -12.8387,1.05000,0.95000,1.10000,0.90000
   102,'B102        ', 138.0000,1,   2,   2,   1,0.96803, -14.6903,1.05000,0.95000,1.10000,0.90000
   103,'B103        ', 138.0000,1,   2,   2,   1,1.00294, -10.8732,1.05000,0.95000,1.10000,0.90000
   104,'B104        ', 138.0000,1,   2,   2,   1,0.95764, -16.7909,1.05000,0.95000,1.10000,0.90000
   105,'B105        ', 138.0000,1,   2,   2,   1,1.00616, -12.4721,1.05000,0.95000,1.10000,0.90000
   106,'B106        ', 138.0000,1,   2,   2,   1,0.98525, -13.9637,1.05000,0.95000,1.10000,0.90000
   107,'B107        ', 138.0000,1,   2,   2,   1,0.97967, -12.0556,1.05000,0.95000,1.10000,0.90000
   108,'B108        ', 138.0000,1,   2,   2,   1,0.97271, -14.6934,1.05000,0.95000,1.10000,0.90000
   109,'B109        ', 138.0000,1,   2,   2,   1,0.98505, -14.1652,1.05000,0.95000,1.10000,0.90000
   110,'B110        ', 138.0000,1,   2,   2,   1,0.97436, -11.5037,1.05000,0.95000,1.10000,0.90000
   111,'B111        ', 138.0000,1,   2,   2,   1,0.96331, -15.6955,1.05000,0.95000,1.10000,0.90000
   112,'B112        ', 138.0000,2,   2,   2,   1,0.98681, -14.0170,1.05000,0.95000,1.10000,0.90000
   113,'B113        ', 138.0000,1,   2,   2,   1,0.97573,  -9.2763,1.05000,0.95000,1.10000,0.90000
   114,'B114        ', 138.0000,1,   2,   2,   1,0.97994, -13.2865,1.05000,0.95000,1.10000,0.90000
   115,'B115        ', 138.0000,1,   2,   2,   1,0.98458, -12.7746,1.05000,0.95000,1.10000,0.90000
   116,'B116        ', 138.0000,1,   2,   2,   1,0.95877, -16.1605,1.05000,0.95000,1.10000,0.90000
   117,'B117        ', 138.0000,1,   2,   2,   1,0.95860, -19.1739,1.05000,0.95000,1.10000,0.90000
   118,'B118        ', 138.0000,1,   2,   2,   1,0.97088, -14.6990,1.05000,0.95000,1.10000,0.90000
   119,'B119        ', 138.0000,1,   2,   2,   1,0.97138, -12.4337,1.05000,0.95000,1.10000,0.90000
   120,'B120        ', 138.0000,2,   2,   2,   1,0.98449, -13.9698,1.05000,0.95000,1.10000,0.90000
   121,'B121        ', 138.0000,1,   2,   2,   1,0.98438, -13.9746,1.05000,0.95000,1.10000,0.90000
   122,'B122        ', 138.0000,1,   2,   2,   1,0.96678, -14.9204,1.05000,0.95000,1.10000,0.90000
   123,'B123        ', 138.0000,1,   2,   2,   1,0.97592, -14.5799,1.05000,0.95000,1.10000,0.90000
   124,'B124        ', 138.0000,2,   2,   2,   1,0.97018, -14.4824,1.05000,0.95000,1.10000,0.90000
   125,'B125        ', 138.0000,2,   2,   2,   1,0.97000, -14.4744,1.05000,0.95000,1.10000,0.90000
   126,'B126        ', 138.0000,1,   2,   2,   1,0.98065, -13.7663,1.05000,0.95000,1.10000,0.90000
   127,'B127        ', 138.0000,2,   2,   2,   1,0.96206, -15.8388,1.05000,0.95000,1.10000,0.90000
   128,'B128        ', 138.0000,2,   2,   2,   1,0.96214, -15.8515,1.05000,0.95000,1.10000,0.90000
   129,'B129        ', 138.0000,1,   2,   2,   1,0.97405, -14.7088,1.05000,0.95000,1.10000,0.90000
   130,'B130        ', 138.0000,1,   2,   2,   1,0.97508,  -9.3205,1.05000,0.95000,1.10000,0.90000
   131,'B131        ', 138.0000,1,   2,   2,   1,0.98616, -14.0612,1.05000,0.95000,1.10000,0.90000
   132,'B132        ', 138.0000,1,   2,   2,   1,0.95890, -16.2136,1.05000,0.95000,1.10000,0.90000
   133,'B133        ', 138.0000,1,   2,   2,   1,0.95741, -16.2761,1.05000,0.95000,1.10000,0.90000
   134,'B134        ', 138.0000,1,   2,   2,   1,0.95794, -16.2329,1.05000,0.95000,1.10000,0.90000
   135,'B135        ', 138.0000,2,   2,   2,   1,1.00718,  -2.3664,1.05000,0.95000,1.10000,0.90000
   136,'B136        ', 138.0000,2,   2,   2,   1,0.97273, -14.4607,1.05000,0.95000,1.10000,0.90000
   137,'B137        ', 138.0000,1,   2,   2,   1,0.97353, -14.7450,1.05000,0.95000,1.10000,0.90000
   138,'B138        ', 138.0000,2,   2,   2,   1,0.95792, -18.8165,1.05000,0.95000,1.10000,0.90000
   139,'B139        ', 138.0000,1,   2,   2,   1,0.96997, -14.6636,1.05000,0.95000,1.10000,0.90000
   140,'B140        ', 138.0000,1,   2,   2,   1,1.00294, -13.6945,1.05000,0.95000,1.10000,0.90000
   141,'B141        ', 138.0000,1,   2,   2,   1,0.97270,  -9.6873,1.05000,0.95000,1.10000,0.90000
   142,'B142        ', 138.0000,1,   2,   2,   1,0.95944, -16.1705,1.05000,0.95000,1.10000,0.90000
   143,'B143        ', 138.0000,1,   2,   2,   1,0.98528, -12.6392,1.05000,0.95000,1.10000,0.90000
   144,'B144        ', 138.0000,1,   2,   2,   1,0.97809, -14.3393,1.05000,0.95000,1.10000,0.90000
   145,'B145        ', 138.0000,1,   2,   2,   1,0.98598, -13.9882,1.05000,0.95000,1.10000,0.90000
   146,'B146        ', 138.0000,1,   2,   2,   1,0.97242, -14.8430,1.05000,0.95000,1.10000,0.90000
   147,'B147        ', 138.0000,1,   2,   2,   1,0.97795, -14.3482,1.05000,0.95000,1.10000,0.90000
   148,'B148        ', 138.0000,1,   2,   2,   1,0.96740, -14.9509,1.05000,0.95000,1.10000,0.90000
   149,'B149        ', 138.0000,1,   2,   2,   1,0.97045, -13.2976,1.05000,0.95000,1.10000,0.90000
   150,'B150        ', 345.0000,2,   2,   2,   1,1.00794, -14.2707,1.05000,0.95000,1.10000,0.90000
   151,'C151        ', 345.0000,1,   3,   3,   1,0.99304, -12.2603,1.05000,0.95000,1.10000,0.90000
   152,'C152        ', 500.0000,1,   3,   3,   1,0.99979, -11.3977,1.05000,0.95000,1.10000,0.90000
   153,'C153        ', 500.0000,2,   3,   3,   1,0.99977, -11.3916,1.05000,0.95000,1.10000,0.90000
   154,'C154        ', 500.0000,1,   3,   3,   1,0.99521, -15.2207,1.05000,0.95000,1.10000,0.90000
   155,'C155        ', 500.0000,1,   3,   3,   1,0.99525, -15.1916,1.05000,0.95000,1.10000,0.90000
   156,'C156        ', 500.0000,1,   3,   3,   1,1.00571, -20.2812,1.05000,0.95000,1.10000,0.90000
   157,'C157        ', 345.0000,2,   3,   3,   1,0.98953, -19.6746,1.05000,0.95000,1.10000,0.90000
   158,'C158        ', 500.0000,2,   3,   3,   1,0.96230, -19.8642,1.05000,0.95000,1.10000,0.90000
   159,'C159        ', 500.0000,1,   3,   3,   1,0.96230, -19.8642,1.05000,0.95000,1.10000,0.90000
   160,'C160        ', 500.0000,1,   3,   3,   1,0.98504, -14.3760,1.05000,0.95000,1.10000,0.90000
   161,'C161        ', 500.0000,2,   3,   3,   1,0.98478, -14.3714,1.05000,0.95000,1.10000,0.90000
   162,'C162        ', 500.0000,1,   3,   3,   1,0.99805, -13.7307,1.05000,0.95000,1.10000,0.90000
   163,'C163        ', 500.0000,1,   3,   3,   1,1.00758, -11.3022,1.05000,0.95000,1.10000,0.90000
   164,'C164        ', 500.0000,1,   3,   3,   1,1.00751, -11.3042,1.05000,0.95000,1.10000,0.90000
   165,'C165        ', 500.0000,2,   3,   3,   1,1.00430, -13.0988,1.05000,0.95000,1.10000,0.90000
   166,'C166        ', 500.0000,2,   3,   3,   1,1.00445, -13.1084,1.05000,0.95000,1.10000,0.90000
   167,'C167        ', 138.0000,1,   3,   3,   1,1.00260,  -6.9326,1.05000,0.95000,1.10000,0.90000
   168,'C168        ', 138.0000,2,   3,   3,   1,1.00111, -14.4890,1.05000,0.95000,1.10000,0.90000
   169,'C169        ', 138.0000,2,   3,   3,   1,1.00086, -14.4819,1.05000,0.95000,1.10000,0.90000
   170,'C170        ', 138.0000,1,   3,   3,   1,1.00035, -15.2833,1.05000,0.95000,1.10000,0.90000
   171,'C171        ', 138.0000,2,   3,   3,   1,1.00664,  -3.3617,1.05000,0.95000,1.10000,0.90000
   172,'C172        ', 138.0000,1,   3,   3,   1,0.97933, -18.5625,1.05000,0.95000,1.10000,0.90000
   173,'C173        ',  32.0000,1,   3,   3,   1,1.02990, -20.4212,1.05000,0.95000,1.10000,0.90000
   174,'C174        ', 138.0000,1,   3,   3,   1,0.99247, -15.8821,1.05000,0.95000,1.10000,0.90000
   175,'C175        ', 138.0000,1,   3,   3,   1,0.99485, -15.0512,1.05000,0.95000,1.10000,0.90000
   176,'C176        ', 138.0000,1,   3,   3,   1,0.99485, -15.0433,1.05000,0.95000,1.10000,0.90000
   177,'C177        ', 138.0000,2,   3,   3,   1,1.00734, -11.8552,1.05000,0.95000,1.10000,0.90000
   178,'C178        ', 138.0000,2,   3,   3,   1,1.00788, -11.7288,1.05000,0.95000,1.10000,0.90000
   179,'C179        ', 138.0000,1,   3,   3,   1,0.99306, -15.2653,1.05000,0.95000,1.10000,0.90000
   180,'C180        ', 138.0000,1,   3,   3,   1,0.99462, -15.0691,1.05000,0.95000,1.10000,0.90000
   181,'C181        ', 138.0000,1,   3,   3,   1,0.99237, -15.8572,1.05000,0.95000,1.10000,0.90000
   182,'C182        ', 138.0000,1,   3,   3,   1,0.99596, -14.9562,1.05000,0.95000,1.10000,0.90000
   183,'C183        ', 138.0000,2,   3,   3,   1,1.00718,  -2.9589,1.05000,0.95000,1.10000,0.90000
   184,'C184        ', 138.0000,1,   3,   3,   1,1.00695,  -3.5182,1.05000,0.95000,1.10000,0.90000
   185,'C185        ', 138.0000,2,   3,   3,   1,1.00980, -14.6283,1.05000,0.95000,1.10000,0.90000
   186,'C186        ', 138.0000,1,   3,   3,   1,0.99725, -14.8344,1.05000,0.95000,1.10000,0.90000
   187,'C187        ',  16.0000,1,   3,   3,   1,1.02160, -13.8453,1.05000,0.95000,1.10000,0.90000
   188,'C188        ', 138.0000,2,   3,   3,   1,1.00788, -10.3219,1.05000,0.95000,1.10000,0.90000
   189,'C189        ', 138.0000,1,   3,   3,   1,0.99295,  -6.9978,1.05000,0.95000,1.10000,0.90000
   190,'C190        ', 138.0000,1,   3,   3,   1,0.97940, -18.5637,1.05000,0.95000,1.10000,0.90000
   191,'C191        ', 138.0000,1,   3,   3,   1,0.99245, -15.3785,1.05000,0.95000,1.10000,0.90000
   192,'C192        ', 138.0000,1,   3,   3,   1,0.99892, -13.4622,1.05000,0.95000,1.10000,0.90000
   193,'C193        ', 138.0000,1,   3,   3,   1,0.99991, -14.1546,1.05000,0.95000,1.10000,0.90000
   194,'C194        ', 138.0000,2,   3,   3,   1,0.99215, -15.9062,1.05000,0.95000,1.10000,0.90000
   195,'C195        ', 138.0000,2,   3,   3,   1,1.00788,  -3.8928,1.05000,0.95000,1.10000,0.90000
   196,'C196        ', 138.0000,1,   3,   3,   1,0.99157,  -7.1876,1.05000,0.95000,1.10000,0.90000
   197,'C197        ', 138.0000,1,   3,   3,   1,0.99260,  -7.0304,1.05000,0.95000,1.10000,0.90000
   198,'C198        ', 138.0000,1,   3,   3,   1,1.00696,  -3.6614,1.05000,0.95000,1.10000,0.90000
   199,'C199        ', 138.0000,1,   3,   3,   1,0.99673,  -6.5565,1.05000,0.95000,1.10000,0.90000
   200,'C200        ', 138.0000,1,   3,   3,   1,0.99668,  -6.4515,1.05000,0.95000,1.10000,0.90000
   201,'C201        ', 138.0000,2,   3,   3,   1,1.00788,  -3.7228,1.05000,0.95000,1.10000,0.90000
   202,'C202        ', 138.0000,1,   3,   3,   1,1.00790,  -3.7577,1.05000,0.95000,1.10000,0.90000
   203,'C203        ', 138.0000,1,   3,   3,   1,1.00761,  -3.8025,1.05000,0.95000,1.10000,0.90000
   204,'C204        ', 138.0000,1,   3,   3,   1,0.99465, -15.0622,1.05000,0.95000,1.10000,0.90000
   205,'C205        ', 138.0000,1,   3,   3,   1,0.99522, -15.0194,1.05000,0.95000,1.10000,0.90000
   206,'C206        ', 138.0000,1,   3,   3,   1,0.99314,  -6.8954,1.05000,0.95000,1.10000,0.90000
   207,'C207        ', 138.0000,2,   3,   3,   1,1.00581, -12.2177,1.05000,0.95000,1.10000,0.90000
   208,'C208        ', 138.0000,1,   3,   3,   1,0.99956, -12.5794,1.05000,0.95000,1.10000,0.90000
   209,'C209        ', 138.0000,2,   3,   3,   1,0.99846,  -6.0277,1.05000,0.95000,1.10000,0.90000
   210,'C210        ', 138.0000,1,   3,   3,   1,0.99260, -15.4888,1.05000,0.95000,1.10000,0.90000
   211,'C211        ', 138.0000,1,   3,   3,   1,0.99242, -15.8503,1.05000,0.95000,1.10000,0.90000
   212,'C212        ', 138.0000,1,   3,   3,   1,0.99296,  -6.9968,1.05000,0.95000,1.10000,0.90000
   213,'C213        ', 138.0000,1,   3,   3,   1,1.00786,  -3.7475,1.05000,0.95000,1.10000,0.90000
   214,'C214        ', 138.0000,1,   3,   3,   1,1.00479, -10.8421,1.05000,0.95000,1.10000,0.90000
   215,'C215        ', 138.0000,1,   3,   3,   1,1.00498, -10.8050,1.05000,0.95000,1.10000,0.90000
   216,'C216        ', 500.0000,1,   3,   3,   1,0.99795, -14.6900,1.05000,0.95000,1.10000,0.90000
   217,'D217        ', 345.0000,2,   4,   4,   1,0.99870, -17.6311,1.05000,0.95000,1.10000,0.90000
   218,'D218        ', 345.0000,1,   4,   4,   1,0.99852, -17.6312,1.05000,0.95000,1.10000,0.90000
   219,'D219        ', 345.0000,1,   4,   4,   1,1.00478, -19.3682,1.05000,0.95000,1.10000,0.90000
   220,'D220        ', 345.0000,1,   4,   4,   1,1.00474, -19.3856,1.05000,0.95000,1.10000,0.90000
   221,'D221        ', 345.0000,1,   4,   4,   1,1.00725, -19.5101,1.05000,0.95000,1.10000,0.90000
   222,'D222        ', 345.0000,1,   4,   4,   1,0.99777, -22.3730,1.05000,0.95000,1.10000,0.90000
   223,'D223        ', 345.0000,2,   4,   4,   1,1.00775, -18.8243,1.05000,0.95000,1.10000,0.90000
   224,'D224        ', 345.0000,2,   4,   4,   1,1.00788, -18.8171,1.05000,0.95000,1.10000,0.90000
   225,'D225        ', 345.0000,2,   4,   4,   1,1.00788, -18.8056,1.05000,0.95000,1.10000,0.90000
   226,'D226        ', 345.0000,1,   4,   4,   1,1.00324, -20.9649,1.05000,0.95000,1.10000,0.90000
   227,'D227        ', 345.0000,2,   4,   4,   1,0.99876, -17.6316,1.05000,0.95000,1.10000,0.90000
   228,'D228        ', 345.0000,2,   4,   4,   1,0.99858, -17.6317,1.05000,0.95000,1.10000,0.90000
   229,'D229        ', 138.0000,1,   4,   4,   1,1.00770, -17.5187,1.05000,0.95000,1.10000,0.90000
   230,'D230        ', 138.0000,1,   4,   4,   1,1.00823, -17.3888,1.05000,0.95000,1.10000,0.90000
   231,'D231        ', 138.0000,1,   4,   4,   1,1.00773, -17.5165,1.05000,0.95000,1.10000,0.90000
   232,'D232        ', 138.0000,1,   4,   4,   1,1.00823, -17.3888,1.05000,0.95000,1.10000,0.90000
   233,'D233        ', 138.0000,1,   4,   4,   1,1.00694, -17.5278,1.05000,0.95000,1.10000,0.90000
   234,'D234        ', 138.0000,1,   4,   4,   1,1.00740, -17.4852,1.05000,0.95000,1.10000,0.90000
   235,'D235        ', 138.0000,2,   4,   4,   1,1.00375, -18.6752,1.05000,0.95000,1.10000,0.90000
   236,'D236        ', 138.0000,2,   4,   4,   1,1.00778, -17.4705,1.05000,0.95000,1.10000,0.90000
   237,'D237        ', 138.0000,1,   4,   4,   1,1.00803, -17.5551,1.05000,0.95000,1.10000,0.90000
   238,'D238        ', 138.0000,1,   4,   4,   1,1.00244, -19.8580,1.05000,0.95000,1.10000,0.90000
   239,'D239        ', 138.0000,1,   4,   4,   1,1.00803, -17.5551,1.05000,0.95000,1.10000,0.90000
   240,'D240        ', 138.0000,1,   4,   4,   1,1.00319, -19.7978,1.05000,0.95000,1.10000,0.90000
   241,'D241        ', 138.0000,1,   4,   4,   1,1.00352, -19.7767,1.05000,0.95000,1.10000,0.90000
   242,'D242        ', 138.0000,1,   4,   4,   1,1.00784, -17.5008,1.05000,0.95000,1.10000,0.90000
   243,'D243        ', 138.0000,1,   4,   4,   1,1.00785, -17.5003,1.05000,0.95000,1.10000,0.90000
   244,'D244        ', 138.0000,1,   4,   4,   1,1.00179, -17.4480,1.05000,0.95000,1.10000,0.90000
   245,'D245        ', 138.0000,2,   4,   4,   1,1.00205, -17.4345,1.05000,0.95000,1.10000,0.90000
   246,'D246        ', 138.0000,2,   4,   4,   1,1.00858, -17.4158,1.05000,0.95000,1.10000,0.90000
   247,'D247        ', 138.0000,1,   4,   4,   1,1.00758, -17.6818,1.05000,0.95000,1.10000,0.90000
   248,'D248        ', 138.0000,2,   4,   4,   1,1.00760, -17.6806,1.05000,0.95000,1.10000,0.90000
   249,'D249        ', 138.0000,1,   4,   4,   1,1.00752, -17.8027,1.05000,0.95000,1.10000,0.90000
   250,'D250        ', 138.0000,1,   4,   4,   1,1.00772, -17.7927,1.05000,0.95000,1.10000,0.90000
   251,'D251        ', 138.0000,1,   4,   4,   1,1.00839, -17.4563,1.05000,0.95000,1.10000,0.90000
   252,'D252        ', 138.0000,2,   4,   4,   1,1.00376, -19.7526,1.05000,0.95000,1.10000,0.90000
   253,'D253        ', 138.0000,1,   4,   4,   1,1.00427, -20.5709,1.05000,0.95000,1.10000,0.90000
   254,'D254        ', 138.0000,1,   4,   4,   1,0.99672, -21.5501,1.05000,0.95000,1.10000,0.90000
   255,'D255        ', 138.0000,1,   4,   4,   1,1.00651, -19.9762,1.05000,0.95000,1.10000,0.90000
   256,'D256        ', 138.0000,1,   4,   4,   1,1.00822, -17.4496,1.05000,0.95000,1.10000,0.90000
   257,'D257        ', 138.0000,1,   4,   4,   1,1.00412, -18.6064,1.05000,0.95000,1.10000,0.90000
   258,'D258        ', 138.0000,1,   4,   4,   1,1.00415, -18.6038,1.05000,0.95000,1.10000,0.90000
   259,'D259        ', 138.0000,1,   4,   4,   1,1.00469, -19.5264,1.05000,0.95000,1.10000,0.90000
   260,'D260        ', 138.0000,1,   4,   4,   1,1.00469, -19.4839,1.05000,0.95000,1.10000,0.90000
   261,'D261        ', 138.0000,1,   4,   4,   1,1.00838, -17.4752,1.05000,0.95000,1.10000,0.90000
   262,'D262        ', 138.0000,1,   4,   4,   1,1.00840, -17.4731,1.05000,0.95000,1.10000,0.90000
   263,'D263        ', 138.0000,1,   4,   4,   1,1.00663, -17.8960,1.05000,0.95000,1.10000,0.90000
   264,'D264        ', 138.0000,1,   4,   4,   1,1.00668, -17.8913,1.05000,0.95000,1.10000,0.90000
   265,'D265        ', 138.0000,1,   4,   4,   1,1.00447, -18.4953,1.05000,0.95000,1.10000,0.90000
   266,'D266        ', 138.0000,1,   4,   4,   1,1.00596, -18.2112,1.05000,0.95000,1.10000,0.90000
   267,'D267        ', 138.0000,1,   4,   4,   1,1.00613, -18.1976,1.05000,0.95000,1.10000,0.90000
   268,'D268        ', 138.0000,1,   4,   4,   1,1.00287, -21.0231,1.05000,0.95000,1.10000,0.90000
   269,'D269        ', 138.0000,1,   4,   4,   1,1.00465, -18.4834,1.05000,0.95000,1.10000,0.90000
   270,'D270        ', 138.0000,1,   4,   4,   1,1.00537, -18.3880,1.05000,0.95000,1.10000,0.90000
   271,'D271        ', 138.0000,1,   4,   4,   1,1.00539, -18.4052,1.05000,0.95000,1.10000,0.90000
   272,'D272        ', 138.0000,1,   4,   4,   1,1.00325, -19.7990,1.05000,0.95000,1.10000,0.90000
   273,'D273        ', 138.0000,1,   4,   4,   1,1.00325, -19.7990,1.05000,0.95000,1.10000,0.90000
   274,'D274        ', 345.0000,2,   4,   4,   1,0.98537, -23.7698,1.05000,0.95000,1.10000,0.90000
   275,'E275        ', 345.0000,1,   5,   5,   1,1.01248, -28.0374,1.05000,0.95000,1.10000,0.90000
   276,'E276        ', 500.0000,1,   5,   5,   1,1.01271, -28.6963,1.05000,0.95000,1.10000,0.90000
   277,'E277        ', 500.0000,2,   5,   5,   1,1.01273, -28.6950,1.05000,0.95000,1.10000,0.90000
   278,'E278        ', 500.0000,1,   5,   5,   1,1.00197, -30.9040,1.05000,0.95000,1.10000,0.90000
   279,'E279        ', 500.0000,1,   5,   5,   1,1.00185, -30.9213,1.05000,0.95000,1.10000,0.90000
   280,'E280        ', 500.0000,1,   5,   5,   1,0.98729, -34.5394,1.05000,0.95000,1.10000,0.90000
   281,'E281        ', 345.0000,2,   5,   5,   1,0.99398, -20.3739,1.05000,0.95000,1.10000,0.90000
   282,'E282        ', 500.0000,2,   5,   5,   1,1.01000, -30.8074,1.05000,0.95000,1.10000,0.90000
   284,'E284        ', 500.0000,1,   5,   5,   1,0.98441, -34.3170,1.05000,0.95000,1.10000,0.90000
   285,'E285        ', 500.0000,2,   5,   5,   1,0.98421, -34.3421,1.05000,0.95000,1.10000,0.90000
   286,'E286        ', 500.0000,1,   5,   5,   1,0.98188, -35.8579,1.05000,0.95000,1.10000,0.90000
   287,'E287        ', 500.0000,1,   5,   5,   1,1.01390, -29.1529,1.05000,0.95000,1.10000,0.90000
   288,'E288        ', 500.0000,1,   5,   5,   1,1.01392, -29.1456,1.05000,0.95000,1.10000,0.90000
   289,'E289        ', 500.0000,2,   5,   5,   1,1.00224, -29.1096,1.05000,0.95000,1.10000,0.90000
   290,'E290        ', 500.0000,2,   5,   5,   1,1.00229, -29.1399,1.05000,0.95000,1.10000,0.90000
   291,'E291        ', 138.0000,1,   5,   5,   1,0.98967, -27.0118,1.05000,0.95000,1.10000,0.90000
   292,'E292        ', 138.0000,2,   5,   5,   1,1.00384, -20.3362,1.05000,0.95000,1.10000,0.90000
   293,'E293        ', 138.0000,2,   5,   5,   1,1.00372, -20.3711,1.05000,0.95000,1.10000,0.90000
   294,'E294        ', 138.0000,1,   5,   5,   1,1.00662, -15.6218,1.05000,0.95000,1.10000,0.90000
   295,'E295        ', 138.0000,2,   5,   5,   1,0.99323, -29.1500,1.05000,0.95000,1.10000,0.90000
   296,'E296        ', 138.0000,1,   5,   5,   1,0.98960, -34.8260,1.05000,0.95000,1.10000,0.90000
   297,'E297        ',  32.0000,2,   5,   5,   1,1.00000, -34.1296,1.05000,0.95000,1.10000,0.90000
   298,'E298        ', 138.0000,1,   5,   5,   1,1.00441, -16.5143,1.05000,0.95000,1.10000,0.90000
   299,'E299        ', 138.0000,1,   5,   5,   1,1.00127, -19.8472,1.05000,0.95000,1.10000,0.90000